************************************************************************
* auCdl Netlist:
*
* Library Name:  SMIC_MEMORY
* Top Cell Name: RAM1024
* Version:  V0.2
* View Name:     schematic
* Netlisted on:  Sun Sep 11 16:39:00 CST 2022
************************************************************************
*.BIPOLAR
*.RESI = 2000
*.RESVAL
*.CAPVAL
*.DIOPERI
*.DIOAREA
*.EQUATION
*.SCALE METER
*.MEGA
.PARAM


************************************************************************
* Library Name:  SMIC_MEMORY
* Cell Name:    RAM1024_BITCELLDBL
* View Name:    schematic
************************************************************************

.SUBCKT RAM1024_BITCELLDBL BB VDD VSS
MM4 BB VSS VSS VSS N18 W=220.00N L=225.00N M=1
MM1 VSS VSS VSS VSS N18 W=705.00N L=180.00N M=1
MM7 VSS VSS VSS VSS N18 W=220.00N L=225.00N M=1
MM6 VDD VDD VDD VDD P18 W=220.000N L=200.00N M=1
.ENDS

************************************************************************
* Library Name:  SMIC_MEMORY
* Cell Name:    RAM1024_BITCELL_EDGE256
* View Name:    schematic
************************************************************************

.SUBCKT RAM1024_BITCELL_EDGE256 DBL VDD VSS
XI0 DBL VDD VSS RAM1024_BITCELLDBL
XI1 DBL VDD VSS RAM1024_BITCELLDBL
XI2 DBL VDD VSS RAM1024_BITCELLDBL
XI3 DBL VDD VSS RAM1024_BITCELLDBL
XI4 DBL VDD VSS RAM1024_BITCELLDBL
XI5 DBL VDD VSS RAM1024_BITCELLDBL
XI6 DBL VDD VSS RAM1024_BITCELLDBL
XI7 DBL VDD VSS RAM1024_BITCELLDBL
XI8 DBL VDD VSS RAM1024_BITCELLDBL
XI9 DBL VDD VSS RAM1024_BITCELLDBL
XI10 DBL VDD VSS RAM1024_BITCELLDBL
XI11 DBL VDD VSS RAM1024_BITCELLDBL
XI12 DBL VDD VSS RAM1024_BITCELLDBL
XI13 DBL VDD VSS RAM1024_BITCELLDBL
XI14 DBL VDD VSS RAM1024_BITCELLDBL
XI15 DBL VDD VSS RAM1024_BITCELLDBL
XI16 DBL VDD VSS RAM1024_BITCELLDBL
XI17 DBL VDD VSS RAM1024_BITCELLDBL
XI18 DBL VDD VSS RAM1024_BITCELLDBL
XI19 DBL VDD VSS RAM1024_BITCELLDBL
XI20 DBL VDD VSS RAM1024_BITCELLDBL
XI21 DBL VDD VSS RAM1024_BITCELLDBL
XI22 DBL VDD VSS RAM1024_BITCELLDBL
XI23 DBL VDD VSS RAM1024_BITCELLDBL
XI24 DBL VDD VSS RAM1024_BITCELLDBL
XI25 DBL VDD VSS RAM1024_BITCELLDBL
XI26 DBL VDD VSS RAM1024_BITCELLDBL
XI27 DBL VDD VSS RAM1024_BITCELLDBL
XI28 DBL VDD VSS RAM1024_BITCELLDBL
XI29 DBL VDD VSS RAM1024_BITCELLDBL
XI30 DBL VDD VSS RAM1024_BITCELLDBL
XI31 DBL VDD VSS RAM1024_BITCELLDBL
XI32 DBL VDD VSS RAM1024_BITCELLDBL
XI33 DBL VDD VSS RAM1024_BITCELLDBL
XI34 DBL VDD VSS RAM1024_BITCELLDBL
XI35 DBL VDD VSS RAM1024_BITCELLDBL
XI36 DBL VDD VSS RAM1024_BITCELLDBL
XI37 DBL VDD VSS RAM1024_BITCELLDBL
XI38 DBL VDD VSS RAM1024_BITCELLDBL
XI39 DBL VDD VSS RAM1024_BITCELLDBL
XI40 DBL VDD VSS RAM1024_BITCELLDBL
XI41 DBL VDD VSS RAM1024_BITCELLDBL
XI42 DBL VDD VSS RAM1024_BITCELLDBL
XI43 DBL VDD VSS RAM1024_BITCELLDBL
XI44 DBL VDD VSS RAM1024_BITCELLDBL
XI45 DBL VDD VSS RAM1024_BITCELLDBL
XI46 DBL VDD VSS RAM1024_BITCELLDBL
XI47 DBL VDD VSS RAM1024_BITCELLDBL
XI48 DBL VDD VSS RAM1024_BITCELLDBL
XI49 DBL VDD VSS RAM1024_BITCELLDBL
XI50 DBL VDD VSS RAM1024_BITCELLDBL
XI51 DBL VDD VSS RAM1024_BITCELLDBL
XI52 DBL VDD VSS RAM1024_BITCELLDBL
XI53 DBL VDD VSS RAM1024_BITCELLDBL
XI54 DBL VDD VSS RAM1024_BITCELLDBL
XI55 DBL VDD VSS RAM1024_BITCELLDBL
XI56 DBL VDD VSS RAM1024_BITCELLDBL
XI57 DBL VDD VSS RAM1024_BITCELLDBL
XI58 DBL VDD VSS RAM1024_BITCELLDBL
XI59 DBL VDD VSS RAM1024_BITCELLDBL
XI60 DBL VDD VSS RAM1024_BITCELLDBL
XI61 DBL VDD VSS RAM1024_BITCELLDBL
XI62 DBL VDD VSS RAM1024_BITCELLDBL
XI63 DBL VDD VSS RAM1024_BITCELLDBL
XI64 DBL VDD VSS RAM1024_BITCELLDBL
XI65 DBL VDD VSS RAM1024_BITCELLDBL
XI66 DBL VDD VSS RAM1024_BITCELLDBL
XI67 DBL VDD VSS RAM1024_BITCELLDBL
XI68 DBL VDD VSS RAM1024_BITCELLDBL
XI69 DBL VDD VSS RAM1024_BITCELLDBL
XI70 DBL VDD VSS RAM1024_BITCELLDBL
XI71 DBL VDD VSS RAM1024_BITCELLDBL
XI72 DBL VDD VSS RAM1024_BITCELLDBL
XI73 DBL VDD VSS RAM1024_BITCELLDBL
XI74 DBL VDD VSS RAM1024_BITCELLDBL
XI75 DBL VDD VSS RAM1024_BITCELLDBL
XI76 DBL VDD VSS RAM1024_BITCELLDBL
XI77 DBL VDD VSS RAM1024_BITCELLDBL
XI78 DBL VDD VSS RAM1024_BITCELLDBL
XI79 DBL VDD VSS RAM1024_BITCELLDBL
XI80 DBL VDD VSS RAM1024_BITCELLDBL
XI81 DBL VDD VSS RAM1024_BITCELLDBL
XI82 DBL VDD VSS RAM1024_BITCELLDBL
XI83 DBL VDD VSS RAM1024_BITCELLDBL
XI84 DBL VDD VSS RAM1024_BITCELLDBL
XI85 DBL VDD VSS RAM1024_BITCELLDBL
XI86 DBL VDD VSS RAM1024_BITCELLDBL
XI87 DBL VDD VSS RAM1024_BITCELLDBL
XI88 DBL VDD VSS RAM1024_BITCELLDBL
XI89 DBL VDD VSS RAM1024_BITCELLDBL
XI90 DBL VDD VSS RAM1024_BITCELLDBL
XI91 DBL VDD VSS RAM1024_BITCELLDBL
XI92 DBL VDD VSS RAM1024_BITCELLDBL
XI93 DBL VDD VSS RAM1024_BITCELLDBL
XI94 DBL VDD VSS RAM1024_BITCELLDBL
XI95 DBL VDD VSS RAM1024_BITCELLDBL
XI96 DBL VDD VSS RAM1024_BITCELLDBL
XI97 DBL VDD VSS RAM1024_BITCELLDBL
XI98 DBL VDD VSS RAM1024_BITCELLDBL
XI99 DBL VDD VSS RAM1024_BITCELLDBL
XI100 DBL VDD VSS RAM1024_BITCELLDBL
XI101 DBL VDD VSS RAM1024_BITCELLDBL
XI102 DBL VDD VSS RAM1024_BITCELLDBL
XI103 DBL VDD VSS RAM1024_BITCELLDBL
XI104 DBL VDD VSS RAM1024_BITCELLDBL
XI105 DBL VDD VSS RAM1024_BITCELLDBL
XI106 DBL VDD VSS RAM1024_BITCELLDBL
XI107 DBL VDD VSS RAM1024_BITCELLDBL
XI108 DBL VDD VSS RAM1024_BITCELLDBL
XI109 DBL VDD VSS RAM1024_BITCELLDBL
XI110 DBL VDD VSS RAM1024_BITCELLDBL
XI111 DBL VDD VSS RAM1024_BITCELLDBL
XI112 DBL VDD VSS RAM1024_BITCELLDBL
XI113 DBL VDD VSS RAM1024_BITCELLDBL
XI114 DBL VDD VSS RAM1024_BITCELLDBL
XI115 DBL VDD VSS RAM1024_BITCELLDBL
XI116 DBL VDD VSS RAM1024_BITCELLDBL
XI117 DBL VDD VSS RAM1024_BITCELLDBL
XI118 DBL VDD VSS RAM1024_BITCELLDBL
XI119 DBL VDD VSS RAM1024_BITCELLDBL
XI120 DBL VDD VSS RAM1024_BITCELLDBL
XI121 DBL VDD VSS RAM1024_BITCELLDBL
XI122 DBL VDD VSS RAM1024_BITCELLDBL
XI123 DBL VDD VSS RAM1024_BITCELLDBL
XI124 DBL VDD VSS RAM1024_BITCELLDBL
XI125 DBL VDD VSS RAM1024_BITCELLDBL
XI126 DBL VDD VSS RAM1024_BITCELLDBL
XI127 DBL VDD VSS RAM1024_BITCELLDBL
XI128 DBL VDD VSS RAM1024_BITCELLDBL
XI129 DBL VDD VSS RAM1024_BITCELLDBL
XI130 DBL VDD VSS RAM1024_BITCELLDBL
XI131 DBL VDD VSS RAM1024_BITCELLDBL
XI132 DBL VDD VSS RAM1024_BITCELLDBL
XI133 DBL VDD VSS RAM1024_BITCELLDBL
XI134 DBL VDD VSS RAM1024_BITCELLDBL
XI135 DBL VDD VSS RAM1024_BITCELLDBL
XI136 DBL VDD VSS RAM1024_BITCELLDBL
XI137 DBL VDD VSS RAM1024_BITCELLDBL
XI138 DBL VDD VSS RAM1024_BITCELLDBL
XI139 DBL VDD VSS RAM1024_BITCELLDBL
XI140 DBL VDD VSS RAM1024_BITCELLDBL
XI141 DBL VDD VSS RAM1024_BITCELLDBL
XI142 DBL VDD VSS RAM1024_BITCELLDBL
XI143 DBL VDD VSS RAM1024_BITCELLDBL
XI144 DBL VDD VSS RAM1024_BITCELLDBL
XI145 DBL VDD VSS RAM1024_BITCELLDBL
XI146 DBL VDD VSS RAM1024_BITCELLDBL
XI147 DBL VDD VSS RAM1024_BITCELLDBL
XI148 DBL VDD VSS RAM1024_BITCELLDBL
XI149 DBL VDD VSS RAM1024_BITCELLDBL
XI150 DBL VDD VSS RAM1024_BITCELLDBL
XI151 DBL VDD VSS RAM1024_BITCELLDBL
XI152 DBL VDD VSS RAM1024_BITCELLDBL
XI153 DBL VDD VSS RAM1024_BITCELLDBL
XI154 DBL VDD VSS RAM1024_BITCELLDBL
XI155 DBL VDD VSS RAM1024_BITCELLDBL
XI156 DBL VDD VSS RAM1024_BITCELLDBL
XI157 DBL VDD VSS RAM1024_BITCELLDBL
XI158 DBL VDD VSS RAM1024_BITCELLDBL
XI159 DBL VDD VSS RAM1024_BITCELLDBL
XI160 DBL VDD VSS RAM1024_BITCELLDBL
XI161 DBL VDD VSS RAM1024_BITCELLDBL
XI162 DBL VDD VSS RAM1024_BITCELLDBL
XI163 DBL VDD VSS RAM1024_BITCELLDBL
XI164 DBL VDD VSS RAM1024_BITCELLDBL
XI165 DBL VDD VSS RAM1024_BITCELLDBL
XI166 DBL VDD VSS RAM1024_BITCELLDBL
XI167 DBL VDD VSS RAM1024_BITCELLDBL
XI168 DBL VDD VSS RAM1024_BITCELLDBL
XI169 DBL VDD VSS RAM1024_BITCELLDBL
XI170 DBL VDD VSS RAM1024_BITCELLDBL
XI171 DBL VDD VSS RAM1024_BITCELLDBL
XI172 DBL VDD VSS RAM1024_BITCELLDBL
XI173 DBL VDD VSS RAM1024_BITCELLDBL
XI174 DBL VDD VSS RAM1024_BITCELLDBL
XI175 DBL VDD VSS RAM1024_BITCELLDBL
XI176 DBL VDD VSS RAM1024_BITCELLDBL
XI177 DBL VDD VSS RAM1024_BITCELLDBL
XI178 DBL VDD VSS RAM1024_BITCELLDBL
XI179 DBL VDD VSS RAM1024_BITCELLDBL
XI180 DBL VDD VSS RAM1024_BITCELLDBL
XI181 DBL VDD VSS RAM1024_BITCELLDBL
XI182 DBL VDD VSS RAM1024_BITCELLDBL
XI183 DBL VDD VSS RAM1024_BITCELLDBL
XI184 DBL VDD VSS RAM1024_BITCELLDBL
XI185 DBL VDD VSS RAM1024_BITCELLDBL
XI186 DBL VDD VSS RAM1024_BITCELLDBL
XI187 DBL VDD VSS RAM1024_BITCELLDBL
XI188 DBL VDD VSS RAM1024_BITCELLDBL
XI189 DBL VDD VSS RAM1024_BITCELLDBL
XI190 DBL VDD VSS RAM1024_BITCELLDBL
XI191 DBL VDD VSS RAM1024_BITCELLDBL
XI192 DBL VDD VSS RAM1024_BITCELLDBL
XI193 DBL VDD VSS RAM1024_BITCELLDBL
XI194 DBL VDD VSS RAM1024_BITCELLDBL
XI195 DBL VDD VSS RAM1024_BITCELLDBL
XI196 DBL VDD VSS RAM1024_BITCELLDBL
XI197 DBL VDD VSS RAM1024_BITCELLDBL
XI198 DBL VDD VSS RAM1024_BITCELLDBL
XI199 DBL VDD VSS RAM1024_BITCELLDBL
XI200 DBL VDD VSS RAM1024_BITCELLDBL
XI201 DBL VDD VSS RAM1024_BITCELLDBL
XI202 DBL VDD VSS RAM1024_BITCELLDBL
XI203 DBL VDD VSS RAM1024_BITCELLDBL
XI204 DBL VDD VSS RAM1024_BITCELLDBL
XI205 DBL VDD VSS RAM1024_BITCELLDBL
XI206 DBL VDD VSS RAM1024_BITCELLDBL
XI207 DBL VDD VSS RAM1024_BITCELLDBL
XI208 DBL VDD VSS RAM1024_BITCELLDBL
XI209 DBL VDD VSS RAM1024_BITCELLDBL
XI210 DBL VDD VSS RAM1024_BITCELLDBL
XI211 DBL VDD VSS RAM1024_BITCELLDBL
XI212 DBL VDD VSS RAM1024_BITCELLDBL
XI213 DBL VDD VSS RAM1024_BITCELLDBL
XI214 DBL VDD VSS RAM1024_BITCELLDBL
XI215 DBL VDD VSS RAM1024_BITCELLDBL
XI216 DBL VDD VSS RAM1024_BITCELLDBL
XI217 DBL VDD VSS RAM1024_BITCELLDBL
XI218 DBL VDD VSS RAM1024_BITCELLDBL
XI219 DBL VDD VSS RAM1024_BITCELLDBL
XI220 DBL VDD VSS RAM1024_BITCELLDBL
XI221 DBL VDD VSS RAM1024_BITCELLDBL
XI222 DBL VDD VSS RAM1024_BITCELLDBL
XI223 DBL VDD VSS RAM1024_BITCELLDBL
XI224 DBL VDD VSS RAM1024_BITCELLDBL
XI225 DBL VDD VSS RAM1024_BITCELLDBL
XI226 DBL VDD VSS RAM1024_BITCELLDBL
XI227 DBL VDD VSS RAM1024_BITCELLDBL
XI228 DBL VDD VSS RAM1024_BITCELLDBL
XI229 DBL VDD VSS RAM1024_BITCELLDBL
XI230 DBL VDD VSS RAM1024_BITCELLDBL
XI231 DBL VDD VSS RAM1024_BITCELLDBL
XI232 DBL VDD VSS RAM1024_BITCELLDBL
XI233 DBL VDD VSS RAM1024_BITCELLDBL
XI234 DBL VDD VSS RAM1024_BITCELLDBL
XI235 DBL VDD VSS RAM1024_BITCELLDBL
XI236 DBL VDD VSS RAM1024_BITCELLDBL
XI237 DBL VDD VSS RAM1024_BITCELLDBL
XI238 DBL VDD VSS RAM1024_BITCELLDBL
XI239 DBL VDD VSS RAM1024_BITCELLDBL
XI240 DBL VDD VSS RAM1024_BITCELLDBL
XI241 DBL VDD VSS RAM1024_BITCELLDBL
XI242 DBL VDD VSS RAM1024_BITCELLDBL
XI243 DBL VDD VSS RAM1024_BITCELLDBL
XI244 DBL VDD VSS RAM1024_BITCELLDBL
XI245 DBL VDD VSS RAM1024_BITCELLDBL
XI246 DBL VDD VSS RAM1024_BITCELLDBL
XI247 DBL VDD VSS RAM1024_BITCELLDBL
XI248 DBL VDD VSS RAM1024_BITCELLDBL
XI249 DBL VDD VSS RAM1024_BITCELLDBL
XI250 DBL VDD VSS RAM1024_BITCELLDBL
XI251 DBL VDD VSS RAM1024_BITCELLDBL
XI252 DBL VDD VSS RAM1024_BITCELLDBL
XI253 DBL VDD VSS RAM1024_BITCELLDBL
XI254 DBL VDD VSS RAM1024_BITCELLDBL
XI255 DBL VDD VSS RAM1024_BITCELLDBL
XI256 NET12 VDD VSS RAM1024_BITCELLDBL
XI257 NET12 VDD VSS RAM1024_BITCELLDBL
XI258 NET18 VDD VSS RAM1024_BITCELLDBL
XI259 DBL VDD VSS RAM1024_BITCELLDBL
.ENDS

************************************************************************
* Library Name:  SMIC_MEMORY
* Cell Name:    RAM1024_BITCELLDUM
* View Name:    schematic
************************************************************************

.SUBCKT RAM1024_BITCELLDUM VSS WLA
MM4 VSS WLA VSS VSS N18 W=220.00N L=225.00N M=1
MM1 VSS VSS VSS VSS N18 W=705.00N L=180.00N M=1
MM7 VSS WLA VSS VSS N18 W=220.00N L=225.00N M=1
.ENDS

************************************************************************
* Library Name:  SMIC_MEMORY
* Cell Name:    RAM1024_PCAP_DUMMY256
* View Name:    schematic
************************************************************************

.SUBCKT RAM1024_PCAP_DUMMY256 STWL[3] STWL[2] STWL[1] STWL[0] VSS WL[255] WL[254] WL[253] WL[252] WL[251]
+WL[250] WL[249] WL[248] WL[247] WL[246] WL[245] WL[244] WL[243] WL[242] WL[241]
+WL[240] WL[239] WL[238] WL[237] WL[236] WL[235] WL[234] WL[233] WL[232] WL[231]
+WL[230] WL[229] WL[228] WL[227] WL[226] WL[225] WL[224] WL[223] WL[222] WL[221]
+WL[220] WL[219] WL[218] WL[217] WL[216] WL[215] WL[214] WL[213] WL[212] WL[211]
+WL[210] WL[209] WL[208] WL[207] WL[206] WL[205] WL[204] WL[203] WL[202] WL[201]
+WL[200] WL[199] WL[198] WL[197] WL[196] WL[195] WL[194] WL[193] WL[192] WL[191]
+WL[190] WL[189] WL[188] WL[187] WL[186] WL[185] WL[184] WL[183] WL[182] WL[181]
+WL[180] WL[179] WL[178] WL[177] WL[176] WL[175] WL[174] WL[173] WL[172] WL[171]
+WL[170] WL[169] WL[168] WL[167] WL[166] WL[165] WL[164] WL[163] WL[162] WL[161]
+WL[160] WL[159] WL[158] WL[157] WL[156] WL[155] WL[154] WL[153] WL[152] WL[151]
+WL[150] WL[149] WL[148] WL[147] WL[146] WL[145] WL[144] WL[143] WL[142] WL[141]
+WL[140] WL[139] WL[138] WL[137] WL[136] WL[135] WL[134] WL[133] WL[132] WL[131]
+WL[130] WL[129] WL[128] WL[127] WL[126] WL[125] WL[124] WL[123] WL[122] WL[121]
+WL[120] WL[119] WL[118] WL[117] WL[116] WL[115] WL[114] WL[113] WL[112] WL[111]
+WL[110] WL[109] WL[108] WL[107] WL[106] WL[105] WL[104] WL[103] WL[102] WL[101]
+WL[100] WL[99] WL[98] WL[97] WL[96] WL[95] WL[94] WL[93] WL[92] WL[91]
+WL[90] WL[89] WL[88] WL[87] WL[86] WL[85] WL[84] WL[83] WL[82] WL[81]
+WL[80] WL[79] WL[78] WL[77] WL[76] WL[75] WL[74] WL[73] WL[72] WL[71]
+WL[70] WL[69] WL[68] WL[67] WL[66] WL[65] WL[64] WL[63] WL[62] WL[61]
+WL[60] WL[59] WL[58] WL[57] WL[56] WL[55] WL[54] WL[53] WL[52] WL[51]
+WL[50] WL[49] WL[48] WL[47] WL[46] WL[45] WL[44] WL[43] WL[42] WL[41]
+WL[40] WL[39] WL[38] WL[37] WL[36] WL[35] WL[34] WL[33] WL[32] WL[31]
+WL[30] WL[29] WL[28] WL[27] WL[26] WL[25] WL[24] WL[23] WL[22] WL[21]
+WL[20] WL[19] WL[18] WL[17] WL[16] WL[15] WL[14] WL[13] WL[12] WL[11]
+WL[10] WL[9] WL[8] WL[7] WL[6] WL[5] WL[4] WL[3] WL[2] WL[1]
+WL[0]
XI0 VSS WL[255] RAM1024_BITCELLDUM
XI1 VSS WL[254] RAM1024_BITCELLDUM
XI2 VSS WL[253] RAM1024_BITCELLDUM
XI3 VSS WL[252] RAM1024_BITCELLDUM
XI4 VSS WL[251] RAM1024_BITCELLDUM
XI5 VSS WL[250] RAM1024_BITCELLDUM
XI6 VSS WL[249] RAM1024_BITCELLDUM
XI7 VSS WL[248] RAM1024_BITCELLDUM
XI8 VSS WL[247] RAM1024_BITCELLDUM
XI9 VSS WL[246] RAM1024_BITCELLDUM
XI10 VSS WL[245] RAM1024_BITCELLDUM
XI11 VSS WL[244] RAM1024_BITCELLDUM
XI12 VSS WL[243] RAM1024_BITCELLDUM
XI13 VSS WL[242] RAM1024_BITCELLDUM
XI14 VSS WL[241] RAM1024_BITCELLDUM
XI15 VSS WL[240] RAM1024_BITCELLDUM
XI16 VSS WL[239] RAM1024_BITCELLDUM
XI17 VSS WL[238] RAM1024_BITCELLDUM
XI18 VSS WL[237] RAM1024_BITCELLDUM
XI19 VSS WL[236] RAM1024_BITCELLDUM
XI20 VSS WL[235] RAM1024_BITCELLDUM
XI21 VSS WL[234] RAM1024_BITCELLDUM
XI22 VSS WL[233] RAM1024_BITCELLDUM
XI23 VSS WL[232] RAM1024_BITCELLDUM
XI24 VSS WL[231] RAM1024_BITCELLDUM
XI25 VSS WL[230] RAM1024_BITCELLDUM
XI26 VSS WL[229] RAM1024_BITCELLDUM
XI27 VSS WL[228] RAM1024_BITCELLDUM
XI28 VSS WL[227] RAM1024_BITCELLDUM
XI29 VSS WL[226] RAM1024_BITCELLDUM
XI30 VSS WL[225] RAM1024_BITCELLDUM
XI31 VSS WL[224] RAM1024_BITCELLDUM
XI32 VSS WL[223] RAM1024_BITCELLDUM
XI33 VSS WL[222] RAM1024_BITCELLDUM
XI34 VSS WL[221] RAM1024_BITCELLDUM
XI35 VSS WL[220] RAM1024_BITCELLDUM
XI36 VSS WL[219] RAM1024_BITCELLDUM
XI37 VSS WL[218] RAM1024_BITCELLDUM
XI38 VSS WL[217] RAM1024_BITCELLDUM
XI39 VSS WL[216] RAM1024_BITCELLDUM
XI40 VSS WL[215] RAM1024_BITCELLDUM
XI41 VSS WL[214] RAM1024_BITCELLDUM
XI42 VSS WL[213] RAM1024_BITCELLDUM
XI43 VSS WL[212] RAM1024_BITCELLDUM
XI44 VSS WL[211] RAM1024_BITCELLDUM
XI45 VSS WL[210] RAM1024_BITCELLDUM
XI46 VSS WL[209] RAM1024_BITCELLDUM
XI47 VSS WL[208] RAM1024_BITCELLDUM
XI48 VSS WL[207] RAM1024_BITCELLDUM
XI49 VSS WL[206] RAM1024_BITCELLDUM
XI50 VSS WL[205] RAM1024_BITCELLDUM
XI51 VSS WL[204] RAM1024_BITCELLDUM
XI52 VSS WL[203] RAM1024_BITCELLDUM
XI53 VSS WL[202] RAM1024_BITCELLDUM
XI54 VSS WL[201] RAM1024_BITCELLDUM
XI55 VSS WL[200] RAM1024_BITCELLDUM
XI56 VSS WL[199] RAM1024_BITCELLDUM
XI57 VSS WL[198] RAM1024_BITCELLDUM
XI58 VSS WL[197] RAM1024_BITCELLDUM
XI59 VSS WL[196] RAM1024_BITCELLDUM
XI60 VSS WL[195] RAM1024_BITCELLDUM
XI61 VSS WL[194] RAM1024_BITCELLDUM
XI62 VSS WL[193] RAM1024_BITCELLDUM
XI63 VSS WL[192] RAM1024_BITCELLDUM
XI64 VSS WL[191] RAM1024_BITCELLDUM
XI65 VSS WL[190] RAM1024_BITCELLDUM
XI66 VSS WL[189] RAM1024_BITCELLDUM
XI67 VSS WL[188] RAM1024_BITCELLDUM
XI68 VSS WL[187] RAM1024_BITCELLDUM
XI69 VSS WL[186] RAM1024_BITCELLDUM
XI70 VSS WL[185] RAM1024_BITCELLDUM
XI71 VSS WL[184] RAM1024_BITCELLDUM
XI72 VSS WL[183] RAM1024_BITCELLDUM
XI73 VSS WL[182] RAM1024_BITCELLDUM
XI74 VSS WL[181] RAM1024_BITCELLDUM
XI75 VSS WL[180] RAM1024_BITCELLDUM
XI76 VSS WL[179] RAM1024_BITCELLDUM
XI77 VSS WL[178] RAM1024_BITCELLDUM
XI78 VSS WL[177] RAM1024_BITCELLDUM
XI79 VSS WL[176] RAM1024_BITCELLDUM
XI80 VSS WL[175] RAM1024_BITCELLDUM
XI81 VSS WL[174] RAM1024_BITCELLDUM
XI82 VSS WL[173] RAM1024_BITCELLDUM
XI83 VSS WL[172] RAM1024_BITCELLDUM
XI84 VSS WL[171] RAM1024_BITCELLDUM
XI85 VSS WL[170] RAM1024_BITCELLDUM
XI86 VSS WL[169] RAM1024_BITCELLDUM
XI87 VSS WL[168] RAM1024_BITCELLDUM
XI88 VSS WL[167] RAM1024_BITCELLDUM
XI89 VSS WL[166] RAM1024_BITCELLDUM
XI90 VSS WL[165] RAM1024_BITCELLDUM
XI91 VSS WL[164] RAM1024_BITCELLDUM
XI92 VSS WL[163] RAM1024_BITCELLDUM
XI93 VSS WL[162] RAM1024_BITCELLDUM
XI94 VSS WL[161] RAM1024_BITCELLDUM
XI95 VSS WL[160] RAM1024_BITCELLDUM
XI96 VSS WL[159] RAM1024_BITCELLDUM
XI97 VSS WL[158] RAM1024_BITCELLDUM
XI98 VSS WL[157] RAM1024_BITCELLDUM
XI99 VSS WL[156] RAM1024_BITCELLDUM
XI100 VSS WL[155] RAM1024_BITCELLDUM
XI101 VSS WL[154] RAM1024_BITCELLDUM
XI102 VSS WL[153] RAM1024_BITCELLDUM
XI103 VSS WL[152] RAM1024_BITCELLDUM
XI104 VSS WL[151] RAM1024_BITCELLDUM
XI105 VSS WL[150] RAM1024_BITCELLDUM
XI106 VSS WL[149] RAM1024_BITCELLDUM
XI107 VSS WL[148] RAM1024_BITCELLDUM
XI108 VSS WL[147] RAM1024_BITCELLDUM
XI109 VSS WL[146] RAM1024_BITCELLDUM
XI110 VSS WL[145] RAM1024_BITCELLDUM
XI111 VSS WL[144] RAM1024_BITCELLDUM
XI112 VSS WL[143] RAM1024_BITCELLDUM
XI113 VSS WL[142] RAM1024_BITCELLDUM
XI114 VSS WL[141] RAM1024_BITCELLDUM
XI115 VSS WL[140] RAM1024_BITCELLDUM
XI116 VSS WL[139] RAM1024_BITCELLDUM
XI117 VSS WL[138] RAM1024_BITCELLDUM
XI118 VSS WL[137] RAM1024_BITCELLDUM
XI119 VSS WL[136] RAM1024_BITCELLDUM
XI120 VSS WL[135] RAM1024_BITCELLDUM
XI121 VSS WL[134] RAM1024_BITCELLDUM
XI122 VSS WL[133] RAM1024_BITCELLDUM
XI123 VSS WL[132] RAM1024_BITCELLDUM
XI124 VSS WL[131] RAM1024_BITCELLDUM
XI125 VSS WL[130] RAM1024_BITCELLDUM
XI126 VSS WL[129] RAM1024_BITCELLDUM
XI127 VSS WL[128] RAM1024_BITCELLDUM
XI128 VSS WL[127] RAM1024_BITCELLDUM
XI129 VSS WL[126] RAM1024_BITCELLDUM
XI130 VSS WL[125] RAM1024_BITCELLDUM
XI131 VSS WL[124] RAM1024_BITCELLDUM
XI132 VSS WL[123] RAM1024_BITCELLDUM
XI133 VSS WL[122] RAM1024_BITCELLDUM
XI134 VSS WL[121] RAM1024_BITCELLDUM
XI135 VSS WL[120] RAM1024_BITCELLDUM
XI136 VSS WL[119] RAM1024_BITCELLDUM
XI137 VSS WL[118] RAM1024_BITCELLDUM
XI138 VSS WL[117] RAM1024_BITCELLDUM
XI139 VSS WL[116] RAM1024_BITCELLDUM
XI140 VSS WL[115] RAM1024_BITCELLDUM
XI141 VSS WL[114] RAM1024_BITCELLDUM
XI142 VSS WL[113] RAM1024_BITCELLDUM
XI143 VSS WL[112] RAM1024_BITCELLDUM
XI144 VSS WL[111] RAM1024_BITCELLDUM
XI145 VSS WL[110] RAM1024_BITCELLDUM
XI146 VSS WL[109] RAM1024_BITCELLDUM
XI147 VSS WL[108] RAM1024_BITCELLDUM
XI148 VSS WL[107] RAM1024_BITCELLDUM
XI149 VSS WL[106] RAM1024_BITCELLDUM
XI150 VSS WL[105] RAM1024_BITCELLDUM
XI151 VSS WL[104] RAM1024_BITCELLDUM
XI152 VSS WL[103] RAM1024_BITCELLDUM
XI153 VSS WL[102] RAM1024_BITCELLDUM
XI154 VSS WL[101] RAM1024_BITCELLDUM
XI155 VSS WL[100] RAM1024_BITCELLDUM
XI156 VSS WL[99] RAM1024_BITCELLDUM
XI157 VSS WL[98] RAM1024_BITCELLDUM
XI158 VSS WL[97] RAM1024_BITCELLDUM
XI159 VSS WL[96] RAM1024_BITCELLDUM
XI160 VSS WL[95] RAM1024_BITCELLDUM
XI161 VSS WL[94] RAM1024_BITCELLDUM
XI162 VSS WL[93] RAM1024_BITCELLDUM
XI163 VSS WL[92] RAM1024_BITCELLDUM
XI164 VSS WL[91] RAM1024_BITCELLDUM
XI165 VSS WL[90] RAM1024_BITCELLDUM
XI166 VSS WL[89] RAM1024_BITCELLDUM
XI167 VSS WL[88] RAM1024_BITCELLDUM
XI168 VSS WL[87] RAM1024_BITCELLDUM
XI169 VSS WL[86] RAM1024_BITCELLDUM
XI170 VSS WL[85] RAM1024_BITCELLDUM
XI171 VSS WL[84] RAM1024_BITCELLDUM
XI172 VSS WL[83] RAM1024_BITCELLDUM
XI173 VSS WL[82] RAM1024_BITCELLDUM
XI174 VSS WL[81] RAM1024_BITCELLDUM
XI175 VSS WL[80] RAM1024_BITCELLDUM
XI176 VSS WL[79] RAM1024_BITCELLDUM
XI177 VSS WL[78] RAM1024_BITCELLDUM
XI178 VSS WL[77] RAM1024_BITCELLDUM
XI179 VSS WL[76] RAM1024_BITCELLDUM
XI180 VSS WL[75] RAM1024_BITCELLDUM
XI181 VSS WL[74] RAM1024_BITCELLDUM
XI182 VSS WL[73] RAM1024_BITCELLDUM
XI183 VSS WL[72] RAM1024_BITCELLDUM
XI184 VSS WL[71] RAM1024_BITCELLDUM
XI185 VSS WL[70] RAM1024_BITCELLDUM
XI186 VSS WL[69] RAM1024_BITCELLDUM
XI187 VSS WL[68] RAM1024_BITCELLDUM
XI188 VSS WL[67] RAM1024_BITCELLDUM
XI189 VSS WL[66] RAM1024_BITCELLDUM
XI190 VSS WL[65] RAM1024_BITCELLDUM
XI191 VSS WL[64] RAM1024_BITCELLDUM
XI192 VSS WL[63] RAM1024_BITCELLDUM
XI193 VSS WL[62] RAM1024_BITCELLDUM
XI194 VSS WL[61] RAM1024_BITCELLDUM
XI195 VSS WL[60] RAM1024_BITCELLDUM
XI196 VSS WL[59] RAM1024_BITCELLDUM
XI197 VSS WL[58] RAM1024_BITCELLDUM
XI198 VSS WL[57] RAM1024_BITCELLDUM
XI199 VSS WL[56] RAM1024_BITCELLDUM
XI200 VSS WL[55] RAM1024_BITCELLDUM
XI201 VSS WL[54] RAM1024_BITCELLDUM
XI202 VSS WL[53] RAM1024_BITCELLDUM
XI203 VSS WL[52] RAM1024_BITCELLDUM
XI204 VSS WL[51] RAM1024_BITCELLDUM
XI205 VSS WL[50] RAM1024_BITCELLDUM
XI206 VSS WL[49] RAM1024_BITCELLDUM
XI207 VSS WL[48] RAM1024_BITCELLDUM
XI208 VSS WL[47] RAM1024_BITCELLDUM
XI209 VSS WL[46] RAM1024_BITCELLDUM
XI210 VSS WL[45] RAM1024_BITCELLDUM
XI211 VSS WL[44] RAM1024_BITCELLDUM
XI212 VSS WL[43] RAM1024_BITCELLDUM
XI213 VSS WL[42] RAM1024_BITCELLDUM
XI214 VSS WL[41] RAM1024_BITCELLDUM
XI215 VSS WL[40] RAM1024_BITCELLDUM
XI216 VSS WL[39] RAM1024_BITCELLDUM
XI217 VSS WL[38] RAM1024_BITCELLDUM
XI218 VSS WL[37] RAM1024_BITCELLDUM
XI219 VSS WL[36] RAM1024_BITCELLDUM
XI220 VSS WL[35] RAM1024_BITCELLDUM
XI221 VSS WL[34] RAM1024_BITCELLDUM
XI222 VSS WL[33] RAM1024_BITCELLDUM
XI223 VSS WL[32] RAM1024_BITCELLDUM
XI224 VSS WL[31] RAM1024_BITCELLDUM
XI225 VSS WL[30] RAM1024_BITCELLDUM
XI226 VSS WL[29] RAM1024_BITCELLDUM
XI227 VSS WL[28] RAM1024_BITCELLDUM
XI228 VSS WL[27] RAM1024_BITCELLDUM
XI229 VSS WL[26] RAM1024_BITCELLDUM
XI230 VSS WL[25] RAM1024_BITCELLDUM
XI231 VSS WL[24] RAM1024_BITCELLDUM
XI232 VSS WL[23] RAM1024_BITCELLDUM
XI233 VSS WL[22] RAM1024_BITCELLDUM
XI234 VSS WL[21] RAM1024_BITCELLDUM
XI235 VSS WL[20] RAM1024_BITCELLDUM
XI236 VSS WL[19] RAM1024_BITCELLDUM
XI237 VSS WL[18] RAM1024_BITCELLDUM
XI238 VSS WL[17] RAM1024_BITCELLDUM
XI239 VSS WL[16] RAM1024_BITCELLDUM
XI240 VSS WL[15] RAM1024_BITCELLDUM
XI241 VSS WL[14] RAM1024_BITCELLDUM
XI242 VSS WL[13] RAM1024_BITCELLDUM
XI243 VSS WL[12] RAM1024_BITCELLDUM
XI244 VSS WL[11] RAM1024_BITCELLDUM
XI245 VSS WL[10] RAM1024_BITCELLDUM
XI246 VSS WL[9] RAM1024_BITCELLDUM
XI247 VSS WL[8] RAM1024_BITCELLDUM
XI248 VSS WL[7] RAM1024_BITCELLDUM
XI249 VSS WL[6] RAM1024_BITCELLDUM
XI250 VSS WL[5] RAM1024_BITCELLDUM
XI251 VSS WL[4] RAM1024_BITCELLDUM
XI252 VSS WL[3] RAM1024_BITCELLDUM
XI253 VSS STWL[3] RAM1024_BITCELLDUM
XI254 VSS WL[2] RAM1024_BITCELLDUM
XI255 VSS STWL[2] RAM1024_BITCELLDUM
XI256 VSS WL[1] RAM1024_BITCELLDUM
XI257 VSS STWL[1] RAM1024_BITCELLDUM
XI258 VSS WL[0] RAM1024_BITCELLDUM
XI259 VSS STWL[0] RAM1024_BITCELLDUM
.ENDS

************************************************************************
* Library Name:  SMIC_MEMORY
* Cell Name:    RAM1024_YMX4W_FLT
* View Name:    schematic
************************************************************************

.SUBCKT RAM1024_YMX4W_FLT BLW[3] BLW[2] BLW[1] BLW[0] BLXW[3] BLXW[2] BLXW[1] BLXW[0] CTRCLKW CTRCLKWX
+DATA VDD VSS YXW[3] YXW[2] YXW[1] YXW[0]
M0 VDD YXW[3] 7 VDD P18 L=1.8E-07 W=8E-07
M1 BLW[3] 7 VDD VDD P18 L=1.8E-07 W=1.5E-06
M2 9 YXW[2] VDD VDD P18 L=1.8E-07 W=8E-07
M3 BLXW[3] 7 BLW[3] VDD P18 L=1.8E-07 W=1.5E-06
M4 VDD 7 BLXW[3] VDD P18 L=1.8E-07 W=1.5E-06
M5 44 4 VDD VDD P18 L=1.8E-07 W=2.2E-07
M6 BLW[3] 7 VDD VDD P18 L=1.8E-07 W=1.5E-06
M7 8 CTRCLKWX 44 VDD P18 L=1.8E-07 W=2.2E-07
M8 BLXW[3] 7 BLW[3] VDD P18 L=1.8E-07 W=1.5E-06
M9 VDD 7 BLXW[3] VDD P18 L=1.8E-07 W=1.5E-06
M10 15 10 VDD VDD P18 L=1.8E-07 W=1.2E-06
M11 BLXW[2] 9 VDD VDD P18 L=1.8E-07 W=1.5E-06
M12 4 8 VDD VDD P18 L=1.8E-07 W=1.17E-06
M13 BLW[2] 9 BLXW[2] VDD P18 L=1.8E-07 W=1.5E-06
M14 VDD 8 4 VDD P18 L=1.8E-07 W=1.17E-06
M15 VDD 9 BLW[2] VDD P18 L=1.8E-07 W=1.5E-06
M16 VDD 11 10 VDD P18 L=5E-07 W=4E-07
M17 4 8 VDD VDD P18 L=1.8E-07 W=1.17E-06
M18 BLXW[2] 9 VDD VDD P18 L=1.8E-07 W=1.5E-06
M19 11 VSS VDD VDD P18 L=1.8E-07 W=4E-07
M20 8 CTRCLKW 32 VDD P18 L=1.8E-07 W=1E-06
M21 BLW[2] 9 BLXW[2] VDD P18 L=1.8E-07 W=1.5E-06
M22 32 CTRCLKW 8 VDD P18 L=1.8E-07 W=1E-06
M23 VDD 9 BLW[2] VDD P18 L=1.8E-07 W=1.5E-06
M24 VDD 13 14 VDD P18 L=1.8E-07 W=8E-07
M25 32 14 VDD VDD P18 L=1.8E-07 W=1.2E-06
M26 VDD 15 32 VDD P18 L=1.8E-07 W=1.2E-06
M27 34 15 VDD VDD P18 L=1.8E-07 W=1.2E-06
M28 16 CTRCLKW 34 VDD P18 L=1.8E-07 W=1E-06
M29 BLW[1] 20 VDD VDD P18 L=1.8E-07 W=1.5E-06
M30 VDD 13 34 VDD P18 L=1.8E-07 W=1.2E-06
M31 34 CTRCLKW 16 VDD P18 L=1.8E-07 W=1E-06
M32 BLXW[1] 20 BLW[1] VDD P18 L=1.8E-07 W=1.5E-06
M33 13 17 VDD VDD P18 L=1.8E-07 W=1.2E-06
M34 VDD 20 BLXW[1] VDD P18 L=1.8E-07 W=1.5E-06
M35 VDD 16 1 VDD P18 L=1.8E-07 W=1.17E-06
M36 BLW[1] 20 VDD VDD P18 L=1.8E-07 W=1.5E-06
M37 VDD 18 17 VDD P18 L=5E-07 W=4E-07
M38 1 16 VDD VDD P18 L=1.8E-07 W=1.17E-06
M39 BLXW[1] 20 BLW[1] VDD P18 L=1.8E-07 W=1.5E-06
M40 VDD DATA 18 VDD P18 L=1.8E-07 W=4E-07
M41 VDD 16 1 VDD P18 L=1.8E-07 W=1.17E-06
M42 VDD 20 BLXW[1] VDD P18 L=1.8E-07 W=1.5E-06
M43 BLXW[0] 21 VDD VDD P18 L=1.8E-07 W=1.5E-06
M44 45 CTRCLKWX 16 VDD P18 L=1.8E-07 W=2.2E-07
M45 BLW[0] 21 BLXW[0] VDD P18 L=1.8E-07 W=1.5E-06
M46 VDD 21 BLW[0] VDD P18 L=1.8E-07 W=1.5E-06
M47 VDD 1 45 VDD P18 L=1.8E-07 W=2.2E-07
M48 BLXW[0] 21 VDD VDD P18 L=1.8E-07 W=1.5E-06
M49 BLW[0] 21 BLXW[0] VDD P18 L=1.8E-07 W=1.5E-06
M50 VDD YXW[1] 20 VDD P18 L=1.8E-07 W=8E-07
M51 VDD 21 BLW[0] VDD P18 L=1.8E-07 W=1.5E-06
M52 21 YXW[0] VDD VDD P18 L=1.8E-07 W=8E-07
M53 BLW[3] 1 26 VSS N18 L=1.8E-07 W=1.75E-06
M54 VSS YXW[3] 7 VSS N18 L=1.8E-07 W=8E-07
M55 26 1 BLW[3] VSS N18 L=1.8E-07 W=1.75E-06
M56 9 YXW[2] VSS VSS N18 L=1.8E-07 W=8E-07
M57 VSS 7 26 VSS N18 L=1.8E-07 W=1.75E-06
M58 26 7 VSS VSS N18 L=1.8E-07 W=1.75E-06
M59 40 4 VSS VSS N18 L=1.8E-07 W=2.2E-07
M60 BLXW[3] 4 26 VSS N18 L=1.8E-07 W=1.75E-06
M61 8 CTRCLKW 40 VSS N18 L=1.8E-07 W=2.2E-07
M62 26 4 BLXW[3] VSS N18 L=1.8E-07 W=1.75E-06
M63 15 10 VSS VSS N18 L=1.8E-07 W=1.2E-06
M64 4 8 VSS VSS N18 L=1.8E-07 W=1.17E-06
M65 BLXW[2] 4 29 VSS N18 L=1.8E-07 W=1.75E-06
M66 VSS 8 4 VSS N18 L=1.8E-07 W=1.17E-06
M67 29 4 BLXW[2] VSS N18 L=1.8E-07 W=1.75E-06
M68 VSS 11 10 VSS N18 L=5E-07 W=4E-07
M69 4 8 VSS VSS N18 L=1.8E-07 W=1.17E-06
M70 VSS 9 29 VSS N18 L=1.8E-07 W=1.75E-06
M71 11 VSS VSS VSS N18 L=1.8E-07 W=4E-07
M72 29 9 VSS VSS N18 L=1.8E-07 W=1.75E-06
M73 8 CTRCLKWX 32 VSS N18 L=1.8E-07 W=1E-06
M74 BLW[2] 1 29 VSS N18 L=1.8E-07 W=1.75E-06
M75 32 CTRCLKWX 8 VSS N18 L=1.8E-07 W=1E-06
M76 29 1 BLW[2] VSS N18 L=1.8E-07 W=1.75E-06
M77 VSS 13 14 VSS N18 L=1.8E-07 W=8E-07
M78 41 14 VSS VSS N18 L=1.8E-07 W=1.2E-06
M79 32 15 41 VSS N18 L=1.8E-07 W=1.2E-06
M80 BLW[1] 1 33 VSS N18 L=1.8E-07 W=1.75E-06
M81 42 15 34 VSS N18 L=1.8E-07 W=1.2E-06
M82 16 CTRCLKWX 34 VSS N18 L=1.8E-07 W=1E-06
M83 33 1 BLW[1] VSS N18 L=1.8E-07 W=1.75E-06
M84 VSS 13 42 VSS N18 L=1.8E-07 W=1.2E-06
M85 34 CTRCLKWX 16 VSS N18 L=1.8E-07 W=1E-06
M86 VSS 20 33 VSS N18 L=1.8E-07 W=1.75E-06
M87 13 17 VSS VSS N18 L=1.8E-07 W=1.2E-06
M88 33 20 VSS VSS N18 L=1.8E-07 W=1.75E-06
M89 VSS 16 1 VSS N18 L=1.8E-07 W=1.17E-06
M90 BLXW[1] 4 33 VSS N18 L=1.8E-07 W=1.75E-06
M91 VSS 18 17 VSS N18 L=5E-07 W=4E-07
M92 1 16 VSS VSS N18 L=1.8E-07 W=1.17E-06
M93 33 4 BLXW[1] VSS N18 L=1.8E-07 W=1.75E-06
M94 VSS DATA 18 VSS N18 L=1.8E-07 W=4E-07
M95 VSS 16 1 VSS N18 L=1.8E-07 W=1.17E-06
M96 BLXW[0] 4 37 VSS N18 L=1.8E-07 W=1.75E-06
M97 43 CTRCLKW 16 VSS N18 L=1.8E-07 W=2.2E-07
M98 37 4 BLXW[0] VSS N18 L=1.8E-07 W=1.75E-06
M99 VSS 1 43 VSS N18 L=1.8E-07 W=2.2E-07
M100 VSS 21 37 VSS N18 L=1.8E-07 W=1.75E-06
M101 37 21 VSS VSS N18 L=1.8E-07 W=1.75E-06
M102 VSS YXW[1] 20 VSS N18 L=1.8E-07 W=8E-07
M103 BLW[0] 1 37 VSS N18 L=1.8E-07 W=1.75E-06
M104 21 YXW[0] VSS VSS N18 L=1.8E-07 W=8E-07
M105 37 1 BLW[0] VSS N18 L=1.8E-07 W=1.75E-06
.ENDS

************************************************************************
* Library Name:  SMIC_MEMORY
* Cell Name:    RAM1024_YMX4R_FLT
* View Name:    schematic
************************************************************************

.SUBCKT RAM1024_YMX4R_FLT BL[3] BL[2] BL[1] BL[0] BLX[3] BLX[2] BLX[1] BLX[0] DOUT VDD
+VSS YXR[3] YXR[2] YXR[1] YXR[0] CK1 CK4
M0 BL[0] 2 31 VDD P18 L=1.8E-07 W=5E-07
M1 VDD 2 1 VDD P18 L=1.8E-07 W=6.7E-07
M2 31 2 BL[0] VDD P18 L=1.8E-07 W=5E-07
M3 BL[0] 1 VDD VDD P18 L=1.8E-07 W=1E-06
M4 1 2 VDD VDD P18 L=1.8E-07 W=6.7E-07
M5 BL[0] 2 31 VDD P18 L=1.8E-07 W=5E-07
M6 BLX[0] 1 BL[0] VDD P18 L=1.8E-07 W=1E-06
M7 VDD 2 1 VDD P18 L=1.8E-07 W=6.7E-07
M8 VDD 1 BLX[0] VDD P18 L=1.8E-07 W=1E-06
M9 2 3 VDD VDD P18 L=1.8E-07 W=7E-07
M10 34 2 BLX[0] VDD P18 L=1.8E-07 W=5E-07
M11 BL[0] 1 VDD VDD P18 L=1.8E-07 W=1E-06
M12 VDD 3 2 VDD P18 L=1.8E-07 W=7E-07
M13 BLX[0] 2 34 VDD P18 L=1.8E-07 W=5E-07
M14 BLX[0] 1 BL[0] VDD P18 L=1.8E-07 W=1E-06
M15 34 2 BLX[0] VDD P18 L=1.8E-07 W=5E-07
M16 3 YXR[0] VDD VDD P18 L=1.8E-07 W=4E-07
M17 VDD 1 BLX[0] VDD P18 L=1.8E-07 W=1E-06
M18 BLX[1] 13 VDD VDD P18 L=1.8E-07 W=1E-06
M19 VDD YXR[1] 7 VDD P18 L=1.8E-07 W=4E-07
M20 BLX[1] 9 34 VDD P18 L=1.8E-07 W=5E-07
M21 31 11 8 VDD P18 L=1.8E-07 W=1.4E-06
M22 BL[1] 13 BLX[1] VDD P18 L=1.8E-07 W=1E-06
M23 VDD 8 10 VDD P18 L=2E-07 W=5.35E-07
M24 31 5 VDD VDD P18 L=1.8E-07 W=1E-06
M25 34 9 BLX[1] VDD P18 L=1.8E-07 W=5E-07
M26 9 7 VDD VDD P18 L=1.8E-07 W=7E-07
M27 8 11 31 VDD P18 L=1.8E-07 W=1.4E-06
M28 VDD 13 BL[1] VDD P18 L=1.8E-07 W=1E-06
M29 10 8 VDD VDD P18 L=2E-07 W=5.35E-07
M30 34 5 31 VDD P18 L=1.8E-07 W=1E-06
M31 BLX[1] 9 34 VDD P18 L=1.8E-07 W=5E-07
M32 VDD 7 9 VDD P18 L=1.8E-07 W=7E-07
M33 31 11 8 VDD P18 L=1.8E-07 W=1.4E-06
M34 BLX[1] 13 VDD VDD P18 L=1.8E-07 W=1E-06
M35 VDD 8 10 VDD P18 L=2E-07 W=5.35E-07
M36 VDD 5 34 VDD P18 L=1.8E-07 W=1E-06
M37 13 9 VDD VDD P18 L=1.8E-07 W=6.7E-07
M38 BL[1] 13 BLX[1] VDD P18 L=1.8E-07 W=1E-06
M39 8 10 VDD VDD P18 L=2E-07 W=5.35E-07
M40 31 5 VDD VDD P18 L=1.8E-07 W=1E-06
M41 31 9 BL[1] VDD P18 L=1.8E-07 W=5E-07
M42 VDD 9 13 VDD P18 L=1.8E-07 W=6.7E-07
M43 10 11 34 VDD P18 L=1.8E-07 W=1.4E-06