************************************************************************
* auCdl Netlist:
*
* Library Name:  SMIC_MEMORY
* Top Cell Name: RAM128
* Version:  V0.2
* View Name:     schematic
* Netlisted on:  Mon Oct 31 21:44:36 CST 2022
************************************************************************
*.BIPOLAR
*.RESI = 2000
*.RESVAL
*.CAPVAL
*.DIOPERI
*.DIOAREA
*.EQUATION
*.SCALE METER
*.MEGA
.PARAM


************************************************************************
* Library Name:  SMIC_MEMORY
* Cell Name:    RAM128_BITCELLDBL
* View Name:    schematic
************************************************************************

.SUBCKT RAM128_BITCELLDBL BB VDD VSS
MM4 BB VSS VSS VSS N18 W=220.00N L=225.00N M=1
MM1 VSS VSS VSS VSS N18 W=705.00N L=180.00N M=1
MM7 VSS VSS VSS VSS N18 W=220.00N L=225.00N M=1
MM6 VDD VDD VDD VDD P18 W=220.000N L=200.00N M=1
.ENDS

************************************************************************
* Library Name:  SMIC_MEMORY
* Cell Name:    RAM128_BITCELL_EDGE32
* View Name:    schematic
************************************************************************

.SUBCKT RAM128_BITCELL_EDGE32 DBL VDD VSS
XI0 DBL VDD VSS RAM128_BITCELLDBL
XI1 DBL VDD VSS RAM128_BITCELLDBL
XI2 DBL VDD VSS RAM128_BITCELLDBL
XI3 DBL VDD VSS RAM128_BITCELLDBL
XI4 DBL VDD VSS RAM128_BITCELLDBL
XI5 DBL VDD VSS RAM128_BITCELLDBL
XI6 DBL VDD VSS RAM128_BITCELLDBL
XI7 DBL VDD VSS RAM128_BITCELLDBL
XI8 DBL VDD VSS RAM128_BITCELLDBL
XI9 DBL VDD VSS RAM128_BITCELLDBL
XI10 DBL VDD VSS RAM128_BITCELLDBL
XI11 DBL VDD VSS RAM128_BITCELLDBL
XI12 DBL VDD VSS RAM128_BITCELLDBL
XI13 DBL VDD VSS RAM128_BITCELLDBL
XI14 DBL VDD VSS RAM128_BITCELLDBL
XI15 DBL VDD VSS RAM128_BITCELLDBL
XI16 DBL VDD VSS RAM128_BITCELLDBL
XI17 DBL VDD VSS RAM128_BITCELLDBL
XI18 DBL VDD VSS RAM128_BITCELLDBL
XI19 DBL VDD VSS RAM128_BITCELLDBL
XI20 DBL VDD VSS RAM128_BITCELLDBL
XI21 DBL VDD VSS RAM128_BITCELLDBL
XI22 DBL VDD VSS RAM128_BITCELLDBL
XI23 DBL VDD VSS RAM128_BITCELLDBL
XI24 DBL VDD VSS RAM128_BITCELLDBL
XI25 DBL VDD VSS RAM128_BITCELLDBL
XI26 DBL VDD VSS RAM128_BITCELLDBL
XI27 DBL VDD VSS RAM128_BITCELLDBL
XI28 DBL VDD VSS RAM128_BITCELLDBL
XI29 DBL VDD VSS RAM128_BITCELLDBL
XI30 DBL VDD VSS RAM128_BITCELLDBL
XI31 DBL VDD VSS RAM128_BITCELLDBL
XI32 NET12 VDD VSS RAM128_BITCELLDBL
XI33 NET12 VDD VSS RAM128_BITCELLDBL
XI34 NET18 VDD VSS RAM128_BITCELLDBL
XI35 DBL VDD VSS RAM128_BITCELLDBL
.ENDS

************************************************************************
* Library Name:  SMIC_MEMORY
* Cell Name:    RAM128_BITCELLDUM
* View Name:    schematic
************************************************************************

.SUBCKT RAM128_BITCELLDUM VSS WLA
MM4 VSS WLA VSS VSS N18 W=220.00N L=225.00N M=1
MM1 VSS VSS VSS VSS N18 W=705.00N L=180.00N M=1
MM7 VSS WLA VSS VSS N18 W=220.00N L=225.00N M=1
.ENDS

************************************************************************
* Library Name:  SMIC_MEMORY
* Cell Name:    RAM128_PCAP_DUMMY32
* View Name:    schematic
************************************************************************

.SUBCKT RAM128_PCAP_DUMMY32 STWL[3] STWL[2] STWL[1] STWL[0] VSS WL[31] WL[30] WL[29] WL[28] WL[27]
+WL[26] WL[25] WL[24] WL[23] WL[22] WL[21] WL[20] WL[19] WL[18] WL[17]
+WL[16] WL[15] WL[14] WL[13] WL[12] WL[11] WL[10] WL[9] WL[8] WL[7]
+WL[6] WL[5] WL[4] WL[3] WL[2] WL[1] WL[0]
XI0 VSS WL[31] RAM128_BITCELLDUM
XI1 VSS WL[30] RAM128_BITCELLDUM
XI2 VSS WL[29] RAM128_BITCELLDUM
XI3 VSS WL[28] RAM128_BITCELLDUM
XI4 VSS WL[27] RAM128_BITCELLDUM
XI5 VSS WL[26] RAM128_BITCELLDUM
XI6 VSS WL[25] RAM128_BITCELLDUM
XI7 VSS WL[24] RAM128_BITCELLDUM
XI8 VSS WL[23] RAM128_BITCELLDUM
XI9 VSS WL[22] RAM128_BITCELLDUM
XI10 VSS WL[21] RAM128_BITCELLDUM
XI11 VSS WL[20] RAM128_BITCELLDUM
XI12 VSS WL[19] RAM128_BITCELLDUM
XI13 VSS WL[18] RAM128_BITCELLDUM
XI14 VSS WL[17] RAM128_BITCELLDUM
XI15 VSS WL[16] RAM128_BITCELLDUM
XI16 VSS WL[15] RAM128_BITCELLDUM
XI17 VSS WL[14] RAM128_BITCELLDUM
XI18 VSS WL[13] RAM128_BITCELLDUM
XI19 VSS WL[12] RAM128_BITCELLDUM
XI20 VSS WL[11] RAM128_BITCELLDUM
XI21 VSS WL[10] RAM128_BITCELLDUM
XI22 VSS WL[9] RAM128_BITCELLDUM
XI23 VSS WL[8] RAM128_BITCELLDUM
XI24 VSS WL[7] RAM128_BITCELLDUM
XI25 VSS WL[6] RAM128_BITCELLDUM
XI26 VSS WL[5] RAM128_BITCELLDUM
XI27 VSS WL[4] RAM128_BITCELLDUM
XI28 VSS WL[3] RAM128_BITCELLDUM
XI29 VSS STWL[3] RAM128_BITCELLDUM
XI30 VSS WL[2] RAM128_BITCELLDUM
XI31 VSS STWL[2] RAM128_BITCELLDUM
XI32 VSS WL[1] RAM128_BITCELLDUM
XI33 VSS STWL[1] RAM128_BITCELLDUM
XI34 VSS WL[0] RAM128_BITCELLDUM
XI35 VSS STWL[0] RAM128_BITCELLDUM
.ENDS

************************************************************************
* Library Name:  SMIC_MEMORY
* Cell Name:    RAM128_YMX4W_FLT
* View Name:    schematic
************************************************************************

.SUBCKT RAM128_YMX4W_FLT BLW[3] BLW[2] BLW[1] BLW[0] BLXW[3] BLXW[2] BLXW[1] BLXW[0] CTRCLKW CTRCLKWX
+DATA VDD VSS YXW[3] YXW[2] YXW[1] YXW[0]
M0 VDD YXW[3] 7 VDD P18 L=1.8E-07 W=8E-07
M1 BLW[3] 7 VDD VDD P18 L=1.8E-07 W=1.5E-06
M2 9 YXW[2] VDD VDD P18 L=1.8E-07 W=8E-07
M3 BLXW[3] 7 BLW[3] VDD P18 L=1.8E-07 W=1.5E-06
M4 VDD 7 BLXW[3] VDD P18 L=1.8E-07 W=1.5E-06
M5 44 4 VDD VDD P18 L=1.8E-07 W=2.2E-07
M6 BLW[3] 7 VDD VDD P18 L=1.8E-07 W=1.5E-06
M7 8 CTRCLKWX 44 VDD P18 L=1.8E-07 W=2.2E-07
M8 BLXW[3] 7 BLW[3] VDD P18 L=1.8E-07 W=1.5E-06
M9 VDD 7 BLXW[3] VDD P18 L=1.8E-07 W=1.5E-06
M10 15 10 VDD VDD P18 L=1.8E-07 W=1.2E-06
M11 BLXW[2] 9 VDD VDD P18 L=1.8E-07 W=1.5E-06
M12 4 8 VDD VDD P18 L=1.8E-07 W=1.17E-06
M13 BLW[2] 9 BLXW[2] VDD P18 L=1.8E-07 W=1.5E-06
M14 VDD 8 4 VDD P18 L=1.8E-07 W=1.17E-06
M15 VDD 9 BLW[2] VDD P18 L=1.8E-07 W=1.5E-06
M16 VDD 11 10 VDD P18 L=5E-07 W=4E-07
M17 4 8 VDD VDD P18 L=1.8E-07 W=1.17E-06
M18 BLXW[2] 9 VDD VDD P18 L=1.8E-07 W=1.5E-06
M19 11 VSS VDD VDD P18 L=1.8E-07 W=4E-07
M20 8 CTRCLKW 32 VDD P18 L=1.8E-07 W=1E-06
M21 BLW[2] 9 BLXW[2] VDD P18 L=1.8E-07 W=1.5E-06
M22 32 CTRCLKW 8 VDD P18 L=1.8E-07 W=1E-06
M23 VDD 9 BLW[2] VDD P18 L=1.8E-07 W=1.5E-06
M24 VDD 13 14 VDD P18 L=1.8E-07 W=8E-07
M25 32 14 VDD VDD P18 L=1.8E-07 W=1.2E-06
M26 VDD 15 32 VDD P18 L=1.8E-07 W=1.2E-06
M27 34 15 VDD VDD P18 L=1.8E-07 W=1.2E-06
M28 16 CTRCLKW 34 VDD P18 L=1.8E-07 W=1E-06
M29 BLW[1] 20 VDD VDD P18 L=1.8E-07 W=1.5E-06
M30 VDD 13 34 VDD P18 L=1.8E-07 W=1.2E-06
M31 34 CTRCLKW 16 VDD P18 L=1.8E-07 W=1E-06
M32 BLXW[1] 20 BLW[1] VDD P18 L=1.8E-07 W=1.5E-06
M33 13 17 VDD VDD P18 L=1.8E-07 W=1.2E-06
M34 VDD 20 BLXW[1] VDD P18 L=1.8E-07 W=1.5E-06
M35 VDD 16 1 VDD P18 L=1.8E-07 W=1.17E-06
M36 BLW[1] 20 VDD VDD P18 L=1.8E-07 W=1.5E-06
M37 VDD 18 17 VDD P18 L=5E-07 W=4E-07
M38 1 16 VDD VDD P18 L=1.8E-07 W=1.17E-06
M39 BLXW[1] 20 BLW[1] VDD P18 L=1.8E-07 W=1.5E-06
M40 VDD DATA 18 VDD P18 L=1.8E-07 W=4E-07
M41 VDD 16 1 VDD P18 L=1.8E-07 W=1.17E-06
M42 VDD 20 BLXW[1] VDD P18 L=1.8E-07 W=1.5E-06
M43 BLXW[0] 21 VDD VDD P18 L=1.8E-07 W=1.5E-06
M44 45 CTRCLKWX 16 VDD P18 L=1.8E-07 W=2.2E-07
M45 BLW[0] 21 BLXW[0] VDD P18 L=1.8E-07 W=1.5E-06
M46 VDD 21 BLW[0] VDD P18 L=1.8E-07 W=1.5E-06
M47 VDD 1 45 VDD P18 L=1.8E-07 W=2.2E-07
M48 BLXW[0] 21 VDD VDD P18 L=1.8E-07 W=1.5E-06
M49 BLW[0] 21 BLXW[0] VDD P18 L=1.8E-07 W=1.5E-06
M50 VDD YXW[1] 20 VDD P18 L=1.8E-07 W=8E-07
M51 VDD 21 BLW[0] VDD P18 L=1.8E-07 W=1.5E-06
M52 21 YXW[0] VDD VDD P18 L=1.8E-07 W=8E-07
M53 BLW[3] 1 26 VSS N18 L=1.8E-07 W=1.75E-06
M54 VSS YXW[3] 7 VSS N18 L=1.8E-07 W=8E-07
M55 26 1 BLW[3] VSS N18 L=1.8E-07 W=1.75E-06
M56 9 YXW[2] VSS VSS N18 L=1.8E-07 W=8E-07
M57 VSS 7 26 VSS N18 L=1.8E-07 W=1.75E-06
M58 26 7 VSS VSS N18 L=1.8E-07 W=1.75E-06
M59 40 4 VSS VSS N18 L=1.8E-07 W=2.2E-07
M60 BLXW[3] 4 26 VSS N18 L=1.8E-07 W=1.75E-06
M61 8 CTRCLKW 40 VSS N18 L=1.8E-07 W=2.2E-07
M62 26 4 BLXW[3] VSS N18 L=1.8E-07 W=1.75E-06
M63 15 10 VSS VSS N18 L=1.8E-07 W=1.2E-06
M64 4 8 VSS VSS N18 L=1.8E-07 W=1.17E-06
M65 BLXW[2] 4 29 VSS N18 L=1.8E-07 W=1.75E-06
M66 VSS 8 4 VSS N18 L=1.8E-07 W=1.17E-06
M67 29 4 BLXW[2] VSS N18 L=1.8E-07 W=1.75E-06
M68 VSS 11 10 VSS N18 L=5E-07 W=4E-07
M69 4 8 VSS VSS N18 L=1.8E-07 W=1.17E-06
M70 VSS 9 29 VSS N18 L=1.8E-07 W=1.75E-06
M71 11 VSS VSS VSS N18 L=1.8E-07 W=4E-07
M72 29 9 VSS VSS N18 L=1.8E-07 W=1.75E-06
M73 8 CTRCLKWX 32 VSS N18 L=1.8E-07 W=1E-06
M74 BLW[2] 1 29 VSS N18 L=1.8E-07 W=1.75E-06
M75 32 CTRCLKWX 8 VSS N18 L=1.8E-07 W=1E-06
M76 29 1 BLW[2] VSS N18 L=1.8E-07 W=1.75E-06
M77 VSS 13 14 VSS N18 L=1.8E-07 W=8E-07
M78 41 14 VSS VSS N18 L=1.8E-07 W=1.2E-06
M79 32 15 41 VSS N18 L=1.8E-07 W=1.2E-06
M80 BLW[1] 1 33 VSS N18 L=1.8E-07 W=1.75E-06
M81 42 15 34 VSS N18 L=1.8E-07 W=1.2E-06
M82 16 CTRCLKWX 34 VSS N18 L=1.8E-07 W=1E-06
M83 33 1 BLW[1] VSS N18 L=1.8E-07 W=1.75E-06
M84 VSS 13 42 VSS N18 L=1.8E-07 W=1.2E-06
M85 34 CTRCLKWX 16 VSS N18 L=1.8E-07 W=1E-06
M86 VSS 20 33 VSS N18 L=1.8E-07 W=1.75E-06
M87 13 17 VSS VSS N18 L=1.8E-07 W=1.2E-06
M88 33 20 VSS VSS N18 L=1.8E-07 W=1.75E-06
M89 VSS 16 1 VSS N18 L=1.8E-07 W=1.17E-06
M90 BLXW[1] 4 33 VSS N18 L=1.8E-07 W=1.75E-06
M91 VSS 18 17 VSS N18 L=5E-07 W=4E-07
M92 1 16 VSS VSS N18 L=1.8E-07 W=1.17E-06
M93 33 4 BLXW[1] VSS N18 L=1.8E-07 W=1.75E-06
M94 VSS DATA 18 VSS N18 L=1.8E-07 W=4E-07
M95 VSS 16 1 VSS N18 L=1.8E-07 W=1.17E-06
M96 BLXW[0] 4 37 VSS N18 L=1.8E-07 W=1.75E-06
M97 43 CTRCLKW 16 VSS N18 L=1.8E-07 W=2.2E-07
M98 37 4 BLXW[0] VSS N18 L=1.8E-07 W=1.75E-06
M99 VSS 1 43 VSS N18 L=1.8E-07 W=2.2E-07
M100 VSS 21 37 VSS N18 L=1.8E-07 W=1.75E-06
M101 37 21 VSS VSS N18 L=1.8E-07 W=1.75E-06
M102 VSS YXW[1] 20 VSS N18 L=1.8E-07 W=8E-07
M103 BLW[0] 1 37 VSS N18 L=1.8E-07 W=1.75E-06
M104 21 YXW[0] VSS VSS N18 L=1.8E-07 W=8E-07
M105 37 1 BLW[0] VSS N18 L=1.8E-07 W=1.75E-06
.ENDS

************************************************************************
* Library Name:  SMIC_MEMORY
* Cell Name:    RAM128_YMX4R_FLT
* View Name:    schematic
************************************************************************

.SUBCKT RAM128_YMX4R_FLT BL[3] BL[2] BL[1] BL[0] BLX[3] BLX[2] BLX[1] BLX[0] DOUT VDD
+VSS YXR[3] YXR[2] YXR[1] YXR[0] CK1 CK4
M0 BL[0] 2 31 VDD P18 L=1.8E-07 W=5E-07
M1 VDD 2 1 VDD P18 L=1.8E-07 W=6.7E-07
M2 31 2 BL[0] VDD P18 L=1.8E-07 W=5E-07
M3 BL[0] 1 VDD VDD P18 L=1.8E-07 W=1E-06
M4 1 2 VDD VDD P18 L=1.8E-07 W=6.7E-07
M5 BL[0] 2 31 VDD P18 L=1.8E-07 W=5E-07
M6 BLX[0] 1 BL[0] VDD P18 L=1.8E-07 W=1E-06
M7 VDD 2 1 VDD P18 L=1.8E-07 W=6.7E-07
M8 VDD 1 BLX[0] VDD P18 L=1.8E-07 W=1E-06
M9 2 3 VDD VDD P18 L=1.8E-07 W=7E-07
M10 34 2 BLX[0] VDD P18 L=1.8E-07 W=5E-07
M11 BL[0] 1 VDD VDD P18 L=1.8E-07 W=1E-06
M12 VDD 3 2 VDD P18 L=1.8E-07 W=7E-07
M13 BLX[0] 2 34 VDD P18 L=1.8E-07 W=5E-07
M14 BLX[0] 1 BL[0] VDD P18 L=1.8E-07 W=1E-06
M15 34 2 BLX[0] VDD P18 L=1.8E-07 W=5E-07
M16 3 YXR[0] VDD VDD P18 L=1.8E-07 W=4E-07
M17 VDD 1 BLX[0] VDD P18 L=1.8E-07 W=1E-06
M18 BLX[1] 13 VDD VDD P18 L=1.8E-07 W=1E-06
M19 VDD YXR[1] 7 VDD P18 L=1.8E-07 W=4E-07
M20 BLX[1] 9 34 VDD P18 L=1.8E-07 W=5E-07
M21 31 11 8 VDD P18 L=1.8E-07 W=1.4E-06
M22 BL[1] 13 BLX[1] VDD P18 L=1.8E-07 W=1E-06
M23 VDD 8 10 VDD P18 L=2E-07 W=5.35E-07
M24 31 5 VDD VDD P18 L=1.8E-07 W=1E-06
M25 34 9 BLX[1] VDD P18 L=1.8E-07 W=5E-07
M26 9 7 VDD VDD P18 L=1.8E-07 W=7E-07
M27 8 11 31 VDD P18 L=1.8E-07 W=1.4E-06
M28 VDD 13 BL[1] VDD P18 L=1.8E-07 W=1E-06
M29 10 8 VDD VDD P18 L=2E-07 W=5.35E-07
M30 34 5 31 VDD P18 L=1.8E-07 W=1E-06
M31 BLX[1] 9 34 VDD P18 L=1.8E-07 W=5E-07
M32 VDD 7 9 VDD P18 L=1.8E-07 W=7E-07
M33 31 11 8 VDD P18 L=1.8E-07 W=1.4E-06
M34 BLX[1] 13 VDD VDD P18 L=1.8E-07 W=1E-06
M35 VDD 8 10 VDD P18 L=2E-07 W=5.35E-07
M36 VDD 5 34 VDD P18 L=1.8E-07 W=1E-06
M37 13 9 VDD VDD P18 L=1.8E-07 W=6.7E-07
M38 BL[1] 13 BLX[1] VDD P18 L=1.8E-07 W=1E-06
M39 8 10 VDD VDD P18 L=2E-07 W=5.35E-07
M40 31 5 VDD VDD P18 L=1.8E-07 W=1E-06
M41 31 9 BL[1] VDD P18 L=1.8E-07 W=5E-07
M42 VDD 9 13 VDD P18 L=1.8E-07 W=6.7E-07
M43 10 11 34 VDD P18 L=1.8E-07 W=1.4E-06
M44 VDD 13 BL[1] VDD P18 L=1.8E-07 W=1E-06
M45 34 5 31 VDD P18 L=1.8E-07 W=1E-06
M46 VDD 10 8 VDD P18 L=2E-07 W=5.35E-07
M47 BL[1] 9 31 VDD P18 L=1.8E-07 W=5E-07
M48 13 9 VDD VDD P18 L=1.8E-07 W=6.7E-07
M49 34 11 10 VDD P18 L=1.8E-07 W=1.4E-06
M50 VDD 5 34 VDD P18 L=1.8E-07 W=1E-06
M51 8 10 VDD VDD P18 L=2E-07 W=5.35E-07
M52 31 9 BL[1] VDD P18 L=1.8E-07 W=5E-07
M53 10 11 34 VDD P18 L=1.8E-07 W=1.4E-06
M54 17 CK4 VDD VDD P18 L=1.8E-07 W=4E-07
M55 VDD CK1 17 VDD P18 L=1.8E-07 W=4E-07
M56 BL[2] 21 31 VDD P18 L=1.8E-07 W=5E-07
M57 19 10 VDD VDD P18 L=1.8E-07 W=1.5E-06
M58 11 17 VDD VDD P18 L=1.8E-07 W=1.2E-06
M59 VDD 21 15 VDD P18 L=1.8E-07 W=6.7E-07
M60 31 21 BL[2] VDD P18 L=1.8E-07 W=5E-07
M61 BL[2] 15 VDD VDD P18 L=1.8E-07 W=1E-06
M62 VDD 18 19 VDD P18 L=1.8E-07 W=1.5E-06
M63 15 21 VDD VDD P18 L=1.8E-07 W=6.7E-07
M64 BL[2] 21 31 VDD P18 L=1.8E-07 W=5E-07
M65 BLX[2] 15 BL[2] VDD P18 L=1.8E-07 W=1E-06
M66 18 19 VDD VDD P18 L=1.8E-07 W=1.5E-06
M67 VDD 20 5 VDD P18 L=1.8E-07 W=1.6E-06
M68 VDD 21 15 VDD P18 L=1.8E-07 W=6.7E-07
M69 VDD 15 BLX[2] VDD P18 L=1.8E-07 W=1E-06
M70 VDD 8 18 VDD P18 L=1.8E-07 W=1.5E-06
M71 20 CK4 VDD VDD P18 L=1.8E-07 W=4E-07
M72 21 22 VDD VDD P18 L=1.8E-07 W=7E-07
M73 34 21 BLX[2] VDD P18 L=1.8E-07 W=5E-07
M74 BL[2] 15 VDD VDD P18 L=1.8E-07 W=1E-06
M75 VDD 22 21 VDD P18 L=1.8E-07 W=7E-07
M76 BLX[2] 21 34 VDD P18 L=1.8E-07 W=5E-07
M77 VDD CK1 23 VDD P18 L=1.8E-07 W=4E-07
M78 DOUT 18 VDD VDD P18 L=1.8E-07 W=2E-06
M79 BLX[2] 15 BL[2] VDD P18 L=1.8E-07 W=1E-06
M80 34 21 BLX[2] VDD P18 L=1.8E-07 W=5E-07
M81 22 YXR[2] VDD VDD P18 L=1.8E-07 W=4E-07
M82 12 23 VDD VDD P18 L=1.8E-07 W=1.2E-06
M83 VDD 18 DOUT VDD P18 L=1.8E-07 W=2E-06
M84 VDD 15 BLX[2] VDD P18 L=1.8E-07 W=1E-06
M85 BLX[3] 28 VDD VDD P18 L=1.8E-07 W=1E-06
M86 VDD YXR[3] 26 VDD P18 L=1.8E-07 W=4E-07
M87 BLX[3] 27 34 VDD P18 L=1.8E-07 W=5E-07
M88 BL[3] 28 BLX[3] VDD P18 L=1.8E-07 W=1E-06
M89 34 27 BLX[3] VDD P18 L=1.8E-07 W=5E-07
M90 27 26 VDD VDD P18 L=1.8E-07 W=7E-07
M91 VDD 28 BL[3] VDD P18 L=1.8E-07 W=1E-06
M92 BLX[3] 27 34 VDD P18 L=1.8E-07 W=5E-07
M93 VDD 26 27 VDD P18 L=1.8E-07 W=7E-07
M94 BLX[3] 28 VDD VDD P18 L=1.8E-07 W=1E-06
M95 28 27 VDD VDD P18 L=1.8E-07 W=6.7E-07
M96 BL[3] 28 BLX[3] VDD P18 L=1.8E-07 W=1E-06
M97 31 27 BL[3] VDD P18 L=1.8E-07 W=5E-07
M98 VDD 27 28 VDD P18 L=1.8E-07 W=6.7E-07
M99 VDD 28 BL[3] VDD P18 L=1.8E-07 W=1E-06
M100 BL[3] 27 31 VDD P18 L=1.8E-07 W=5E-07
M101 28 27 VDD VDD P18 L=1.8E-07 W=6.7E-07
M102 31 27 BL[3] VDD P18 L=1.8E-07 W=5E-07
M103 VSS 2 1 VSS N18 L=1.8E-07 W=6.7E-07
M104 1 2 VSS VSS N18 L=1.8E-07 W=6.7E-07
M105 VSS 2 1 VSS N18 L=1.8E-07 W=6.7E-07
M106 2 3 VSS VSS N18 L=1.8E-07 W=6E-07
M107 VSS 3 2 VSS N18 L=1.8E-07 W=6E-07
M108 3 YXR[0] VSS VSS N18 L=1.8E-07 W=4E-07
M109 VSS YXR[1] 7 VSS N18 L=1.8E-07 W=4E-07
M110 10 8 36 VSS N18 L=2E-07 W=3E-06
M111 43 5 VSS VSS N18 L=1.8E-07 W=2E-06
M112 36 12 43 VSS N18 L=1.8E-07 W=2E-06
M113 9 7 VSS VSS N18 L=1.8E-07 W=6E-07
M114 36 8 10 VSS N18 L=2E-07 W=3E-06
M115 VSS 7 9 VSS N18 L=1.8E-07 W=6E-07
M116 8 10 36 VSS N18 L=2E-07 W=3E-06
M117 13 9 VSS VSS N18 L=1.8E-07 W=6.7E-07
M118 36 10 8 VSS N18 L=2E-07 W=3E-06
M119 VSS 9 13 VSS N18 L=1.8E-07 W=6.7E-07
M120 13 9 VSS VSS N18 L=1.8E-07 W=6.7E-07
M121 44 CK4 17 VSS N18 L=1.8E-07 W=4E-07
M122 VSS CK1 44 VSS N18 L=1.8E-07 W=4E-07
M123 11 17 VSS VSS N18 L=1.8E-07 W=1.2E-06
M124 45 10 19 VSS N18 L=1.8E-07 W=1.5E-06
M125 VSS 21 15 VSS N18 L=1.8E-07 W=6.7E-07
M126 VSS 18 45 VSS N18 L=1.8E-07 W=1.5E-06
M127 15 21 VSS VSS N18 L=1.8E-07 W=6.7E-07
M128 46 19 VSS VSS N18 L=1.8E-07 W=1.5E-06
M129 VSS 20 5 VSS N18 L=1.8E-07 W=1.2E-06
M130 VSS 21 15 VSS N18 L=1.8E-07 W=6.7E-07
M131 18 8 46 VSS N18 L=1.8E-07 W=1.5E-06
M132 20 CK4 VSS VSS N18 L=1.8E-07 W=8E-07
M133 21 22 VSS VSS N18 L=1.8E-07 W=6E-07
M134 VSS CK1 23 VSS N18 L=1.8E-07 W=4E-07
M135 VSS 22 21 VSS N18 L=1.8E-07 W=6E-07
M136 DOUT 18 VSS VSS N18 L=1.8E-07 W=1E-06
M137 22 YXR[2] VSS VSS N18 L=1.8E-07 W=4E-07
M138 12 23 VSS VSS N18 L=1.8E-07 W=1.2E-06
M139 VSS 18 DOUT VSS N18 L=1.8E-07 W=1E-06
M140 VSS YXR[3] 26 VSS N18 L=1.8E-07 W=4E-07
M141 27 26 VSS VSS N18 L=1.8E-07 W=6E-07
M142 VSS 26 27 VSS N18 L=1.8E-07 W=6E-07
M143 28 27 VSS VSS N18 L=1.8E-07 W=6.7E-07
M144 VSS 27 28 VSS N18 L=1.8E-07 W=6.7E-07
M145 28 27 VSS VSS N18 L=1.8E-07 W=6.7E-07
.ENDS

************************************************************************
* Library Name:  SMIC_MEMORY
* Cell Name:    RAM128_YMX4SAWR_AB
* View Name:    schematic
************************************************************************

.SUBCKT RAM128_YMX4SAWR_AB BLA[3] BLA[2] BLA[1] BLA[0] BLB[3] BLB[2] BLB[1] BLB[0] BLXA[3] BLXA[2]
+BLXA[1] BLXA[0] BLXB[3] BLXB[2] BLXB[1] BLXB[0] CK1 CK4 CTRCLK CTRCLKX
+DATA QA VDD VSS YXR[3] YXR[2] YXR[1] YXR[0] YXW[3] YXW[2]
+YXW[1] YXW[0]
XYMUXW BLB[3] BLB[2] BLB[1] BLB[0] BLXB[3] BLXB[2] BLXB[1] BLXB[0] CTRCLK 
+ CTRCLKX DATA VDD VSS YXW[3] YXW[2] YXW[1] YXW[0] / RAM128_YMX4W_FLT
XYMUXR BLA[3] BLA[2] BLA[1] BLA[0] BLXA[3] BLXA[2] BLXA[1] BLXA[0] QA VDD VSS 
+ YXR[3] YXR[2] YXR[1] YXR[0] CK1 CK4 / RAM128_YMX4R_FLT
.ENDS

************************************************************************
* Library Name:  SMIC_MEMORY
* Cell Name:    RAM128_BITCELL8T
* View Name:    schematic
************************************************************************

.SUBCKT RAM128_BITCELL8T BA BB BXA BXB VDD VSS WLA WLB
MM0 BCN BC VSS VSS N18 W=705.00N L=180.00N M=1
MM4 BB WLB BC VSS N18 W=220.00N L=225.00N M=1
MM1 BC BCN VSS VSS N18 W=705.00N L=180.00N M=1
MM2 BXA WLA BCN VSS N18 W=220.00N L=225.00N M=1
MM3 BA WLA BC VSS N18 W=220.00N L=225.00N M=1
MM7 BXB WLB BCN VSS N18 W=220.00N L=225.00N M=1
MM5 BCN BC VDD VDD P18 W=220.000N L=200.00N M=1
MM6 BC BCN VDD VDD P18 W=220.000N L=200.00N M=1
.ENDS

************************************************************************
* Library Name:  SMIC_MEMORY
* Cell Name:    RAM128_BITCELL2X2
* View Name:    schematic
************************************************************************

.SUBCKT RAM128_BITCELL2X2 BA[1] BA[0] BB[1] BB[0] BXA[1] BXA[0] BXB[1] BXB[0] VDD VSS
+WLA[1] WLA[0] WLB[1] WLB[0]
XI8 BA[0] BB[0] BXA[0] BXB[0] VDD VSS WLA[0] WLB[0] RAM128_BITCELL8T
XI11 BA[1] BB[1] BXA[1] BXB[1] VDD VSS WLA[1] WLB[1] RAM128_BITCELL8T
XI9 BA[0] BB[0] BXA[0] BXB[0] VDD VSS WLA[1] WLB[1] RAM128_BITCELL8T
XI10 BA[1] BB[1] BXA[1] BXB[1] VDD VSS WLA[0] WLB[0] RAM128_BITCELL8T
.ENDS

************************************************************************
* Library Name:  SMIC_MEMORY
* Cell Name:    RAM128_BITCELL32X2N
* View Name:    schematic
************************************************************************

.SUBCKT RAM128_BITCELL32X2N BLA[1] BLA[0] BLB[1] BLB[0] BLXA[1] BLXA[0] BLXB[1] BLXB[0] VDD VSS
+WLA[31] WLA[30] WLA[29] WLA[28] WLA[27] WLA[26] WLA[25] WLA[24] WLA[23] WLA[22]
+WLA[21] WLA[20] WLA[19] WLA[18] WLA[17] WLA[16] WLA[15] WLA[14] WLA[13] WLA[12]
+WLA[11] WLA[10] WLA[9] WLA[8] WLA[7] WLA[6] WLA[5] WLA[4] WLA[3] WLA[2]
+WLA[1] WLA[0] WLB[31] WLB[30] WLB[29] WLB[28] WLB[27] WLB[26] WLB[25] WLB[24]
+WLB[23] WLB[22] WLB[21] WLB[20] WLB[19] WLB[18] WLB[17] WLB[16] WLB[15] WLB[14]
+WLB[13] WLB[12] WLB[11] WLB[10] WLB[9] WLB[8] WLB[7] WLB[6] WLB[5] WLB[4]
+WLB[3] WLB[2] WLB[1] WLB[0]
XI0 BLA[1] BLA[0] BLB[1] BLB[0] BLXA[1] BLXA[0] BLXB[1] BLXB[0] VDD VSS
+WLA[31] WLA[30] WLB[31] WLB[30] RAM128_BITCELL2X2
XI1 BLA[1] BLA[0] BLB[1] BLB[0] BLXA[1] BLXA[0] BLXB[1] BLXB[0] VDD VSS
+WLA[29] WLA[28] WLB[29] WLB[28] RAM128_BITCELL2X2
XI2 BLA[1] BLA[0] BLB[1] BLB[0] BLXA[1] BLXA[0] BLXB[1] BLXB[0] VDD VSS
+WLA[27] WLA[26] WLB[27] WLB[26] RAM128_BITCELL2X2
XI3 BLA[1] BLA[0] BLB[1] BLB[0] BLXA[1] BLXA[0] BLXB[1] BLXB[0] VDD VSS
+WLA[25] WLA[24] WLB[25] WLB[24] RAM128_BITCELL2X2
XI4 BLA[1] BLA[0] BLB[1] BLB[0] BLXA[1] BLXA[0] BLXB[1] BLXB[0] VDD VSS
+WLA[23] WLA[22] WLB[23] WLB[22] RAM128_BITCELL2X2
XI5 BLA[1] BLA[0] BLB[1] BLB[0] BLXA[1] BLXA[0] BLXB[1] BLXB[0] VDD VSS
+WLA[21] WLA[20] WLB[21] WLB[20] RAM128_BITCELL2X2
XI6 BLA[1] BLA[0] BLB[1] BLB[0] BLXA[1] BLXA[0] BLXB[1] BLXB[0] VDD VSS
+WLA[19] WLA[18] WLB[19] WLB[18] RAM128_BITCELL2X2
XI7 BLA[1] BLA[0] BLB[1] BLB[0] BLXA[1] BLXA[0] BLXB[1] BLXB[0] VDD VSS
+WLA[17] WLA[16] WLB[17] WLB[16] RAM128_BITCELL2X2
XI8 BLA[1] BLA[0] BLB[1] BLB[0] BLXA[1] BLXA[0] BLXB[1] BLXB[0] VDD VSS
+WLA[15] WLA[14] WLB[15] WLB[14] RAM128_BITCELL2X2
XI9 BLA[1] BLA[0] BLB[1] BLB[0] BLXA[1] BLXA[0] BLXB[1] BLXB[0] VDD VSS
+WLA[13] WLA[12] WLB[13] WLB[12] RAM128_BITCELL2X2
XI10 BLA[1] BLA[0] BLB[1] BLB[0] BLXA[1] BLXA[0] BLXB[1] BLXB[0] VDD VSS
+WLA[11] WLA[10] WLB[11] WLB[10] RAM128_BITCELL2X2
XI11 BLA[1] BLA[0] BLB[1] BLB[0] BLXA[1] BLXA[0] BLXB[1] BLXB[0] VDD VSS
+WLA[9] WLA[8] WLB[9] WLB[8] RAM128_BITCELL2X2
XI12 BLA[1] BLA[0] BLB[1] BLB[0] BLXA[1] BLXA[0] BLXB[1] BLXB[0] VDD VSS
+WLA[7] WLA[6] WLB[7] WLB[6] RAM128_BITCELL2X2
XI13 BLA[1] BLA[0] BLB[1] BLB[0] BLXA[1] BLXA[0] BLXB[1] BLXB[0] VDD VSS
+WLA[5] WLA[4] WLB[5] WLB[4] RAM128_BITCELL2X2
XI14 BLA[1] BLA[0] BLB[1] BLB[0] BLXA[1] BLXA[0] BLXB[1] BLXB[0] VDD VSS
+WLA[3] WLA[2] WLB[3] WLB[2] RAM128_BITCELL2X2
XI15 BLA[1] BLA[0] BLB[1] BLB[0] BLXA[1] BLXA[0] BLXB[1] BLXB[0] VDD VSS
+WLA[1] WLA[0] WLB[1] WLB[0] RAM128_BITCELL2X2
.ENDS

************************************************************************
* Library Name:  SMIC_MEMORY
* Cell Name:    RAM128_BITCELL32X2
* View Name:    schematic
************************************************************************

.SUBCKT RAM128_BITCELL32X2 BLA[1] BLA[0] BLB[1] BLB[0] BLXA[1] BLXA[0] BLXB[1] BLXB[0] VDD VSS
+WLA[31] WLA[30] WLA[29] WLA[28] WLA[27] WLA[26] WLA[25] WLA[24] WLA[23] WLA[22]
+WLA[21] WLA[20] WLA[19] WLA[18] WLA[17] WLA[16] WLA[15] WLA[14] WLA[13] WLA[12]
+WLA[11] WLA[10] WLA[9] WLA[8] WLA[7] WLA[6] WLA[5] WLA[4] WLA[3] WLA[2]
+WLA[1] WLA[0] WLB[31] WLB[30] WLB[29] WLB[28] WLB[27] WLB[26] WLB[25] WLB[24]
+WLB[23] WLB[22] WLB[21] WLB[20] WLB[19] WLB[18] WLB[17] WLB[16] WLB[15] WLB[14]
+WLB[13] WLB[12] WLB[11] WLB[10] WLB[9] WLB[8] WLB[7] WLB[6] WLB[5] WLB[4]
+WLB[3] WLB[2] WLB[1] WLB[0]
XI0 BLA[1] BLA[0] BLB[1] BLB[0] BLXA[1] BLXA[0] BLXB[1] BLXB[0] VDD VSS
+WLA[31] WLA[30] WLA[29] WLA[28] WLA[27] WLA[26] WLA[25] WLA[24] WLA[23] WLA[22]
+WLA[21] WLA[20] WLA[19] WLA[18] WLA[17] WLA[16] WLA[15] WLA[14] WLA[13] WLA[12]
+WLA[11] WLA[10] WLA[9] WLA[8] WLA[7] WLA[6] WLA[5] WLA[4] WLA[3] WLA[2]
+WLA[1] WLA[0] WLB[31] WLB[30] WLB[29] WLB[28] WLB[27] WLB[26] WLB[25] WLB[24]
+WLB[23] WLB[22] WLB[21] WLB[20] WLB[19] WLB[18] WLB[17] WLB[16] WLB[15] WLB[14]
+WLB[13] WLB[12] WLB[11] WLB[10] WLB[9] WLB[8] WLB[7] WLB[6] WLB[5] WLB[4]
+WLB[3] WLB[2] WLB[1] WLB[0] RAM128_BITCELL32X2N
.ENDS

************************************************************************
* Library Name:  SMIC_MEMORY
* Cell Name:    RAM128_BITCELL2X2_STWL
* View Name:    schematic
************************************************************************

.SUBCKT RAM128_BITCELL2X2_STWL BA0 BXA0 VDD VSS WLA[3] WLA[2] WLA[1] WLA[0] WLB[3] WLB[2] WLB[1] WLB[0]
XI8 BA0 NET54 BXA0 NET53 VDD VSS WLA[0] WLB[0] RAM128_BITCELL8T
XI11 BA3 NET46 BXA3 NET45 VDD VSS WLA[3] WLB[3] RAM128_BITCELL8T
XI9 NET64 NET54 NET63 NET53 VDD VSS WLA[1] WLB[1] RAM128_BITCELL8T
XI10 NET64 NET46 NET63 NET45 VDD VSS WLA[2] WLB[2] RAM128_BITCELL8T
.ENDS

************************************************************************
* Library Name:  SMIC_MEMORY
* Cell Name:    RAM128_BITCELL32X2ABR
* View Name:    schematic
************************************************************************

.SUBCKT RAM128_BITCELL32X2ABR BLA[1] BLA[0] BLB[1] BLB[0] BLXA[1] BLXA[0] BLXB[1] BLXB[0] RDWLA[3] RDWLA[2]
+RDWLA[1] RDWLA[0] RDWLB[3] RDWLB[2] RDWLB[1] RDWLB[0] VDD VSS WLA[31] WLA[30]
+WLA[29] WLA[28] WLA[27] WLA[26] WLA[25] WLA[24] WLA[23] WLA[22] WLA[21] WLA[20]
+WLA[19] WLA[18] WLA[17] WLA[16] WLA[15] WLA[14] WLA[13] WLA[12] WLA[11] WLA[10]
+WLA[9] WLA[8] WLA[7] WLA[6] WLA[5] WLA[4] WLA[3] WLA[2] WLA[1] WLA[0]
+WLB[31] WLB[30] WLB[29] WLB[28] WLB[27] WLB[26] WLB[25] WLB[24] WLB[23] WLB[22]
+WLB[21] WLB[20] WLB[19] WLB[18] WLB[17] WLB[16] WLB[15] WLB[14] WLB[13] WLB[12]
+WLB[11] WLB[10] WLB[9] WLB[8] WLB[7] WLB[6] WLB[5] WLB[4] WLB[3] WLB[2]
+WLB[1] WLB[0]
XI0 BLA[1] BLA[0] BLB[1] BLB[0] BLXA[1] BLXA[0] BLXB[1] BLXB[0] VDD VSS
+WLA[31] WLA[30] WLA[29] WLA[28] WLA[27] WLA[26] WLA[25] WLA[24] WLA[23] WLA[22]
+WLA[21] WLA[20] WLA[19] WLA[18] WLA[17] WLA[16] WLA[15] WLA[14] WLA[13] WLA[12]
+WLA[11] WLA[10] WLA[9] WLA[8] WLA[7] WLA[6] WLA[5] WLA[4] WLA[3] WLA[2]
+WLA[1] WLA[0] WLB[31] WLB[30] WLB[29] WLB[28] WLB[27] WLB[26] WLB[25] WLB[24]
+WLB[23] WLB[22] WLB[21] WLB[20] WLB[19] WLB[18] WLB[17] WLB[16] WLB[15] WLB[14]
+WLB[13] WLB[12] WLB[11] WLB[10] WLB[9] WLB[8] WLB[7] WLB[6] WLB[5] WLB[4]
+WLB[3] WLB[2] WLB[1] WLB[0] RAM128_BITCELL32X2
XI1 BLA[1] BLXA[1] VDD VSS RDWLA[3] RDWLA[2] RDWLA[1] RDWLA[0] RDWLB[3] RDWLB[2] RDWLB[1] RDWLB[0] RAM128_BITCELL2X2_STWL
XI2 BLA[0] BLXA[0] VDD VSS RDWLA[3] RDWLA[2] RDWLA[1] RDWLA[0] RDWLB[3] RDWLB[2] RDWLB[1] RDWLB[0] RAM128_BITCELL2X2_STWL
.ENDS

************************************************************************
* Library Name:  SMIC_MEMORY
* Cell Name:    RAM128_ARRAY_X32Y4D1
* View Name:    schematic
************************************************************************

.SUBCKT RAM128_ARRAY_X32Y4D1 CLKB CLKXB DATAB DOUTA RDWLB[3] RDWLB[2] RDWLB[1] RDWLB[0] SACK1A SACK4A
+VDD VSS WLA[31] WLA[30] WLA[29] WLA[28] WLA[27] WLA[26] WLA[25] WLA[24]
+WLA[23] WLA[22] WLA[21] WLA[20] WLA[19] WLA[18] WLA[17] WLA[16] WLA[15] WLA[14]
+WLA[13] WLA[12] WLA[11] WLA[10] WLA[9] WLA[8] WLA[7] WLA[6] WLA[5] WLA[4]
+WLA[3] WLA[2] WLA[1] WLA[0] WLB[31] WLB[30] WLB[29] WLB[28] WLB[27] WLB[26]
+WLB[25] WLB[24] WLB[23] WLB[22] WLB[21] WLB[20] WLB[19] WLB[18] WLB[17] WLB[16]
+WLB[15] WLB[14] WLB[13] WLB[12] WLB[11] WLB[10] WLB[9] WLB[8] WLB[7] WLB[6]
+WLB[5] WLB[4] WLB[3] WLB[2] WLB[1] WLB[0] YXA[3] YXA[2] YXA[1] YXA[0]
+YXB[3] YXB[2] YXB[1] YXB[0]
XI0 BLA[3] BLA[2] BLA[1] BLA[0] BLB[3] BLB[2] BLB[1] BLB[0] BLXA[3] BLXA[2]
+BLXA[1] BLXA[0] BLXB[3] BLXB[2] BLXB[1] BLXB[0] SACK1A SACK4A CLKB CLKXB
+DATAB DOUTA VDD VSS YXA[3] YXA[2] YXA[1] YXA[0] YXB[3] YXB[2]
+YXB[1] YXB[0] RAM128_YMX4SAWR_AB
XI1 BLA[3] BLA[2] BLB[3] BLB[2] BLXA[3] BLXA[2] BLXB[3] BLXB[2] VSS VSS
+VSS VSS RDWLB[3] RDWLB[2] RDWLB[1] RDWLB[0] VDD VSS WLA[31] WLA[30]
+WLA[29] WLA[28] WLA[27] WLA[26] WLA[25] WLA[24] WLA[23] WLA[22] WLA[21] WLA[20]
+WLA[19] WLA[18] WLA[17] WLA[16] WLA[15] WLA[14] WLA[13] WLA[12] WLA[11] WLA[10]
+WLA[9] WLA[8] WLA[7] WLA[6] WLA[5] WLA[4] WLA[3] WLA[2] WLA[1] WLA[0]
+WLB[31] WLB[30] WLB[29] WLB[28] WLB[27] WLB[26] WLB[25] WLB[24] WLB[23] WLB[22]
+WLB[21] WLB[20] WLB[19] WLB[18] WLB[17] WLB[16] WLB[15] WLB[14] WLB[13] WLB[12]
+WLB[11] WLB[10] WLB[9] WLB[8] WLB[7] WLB[6] WLB[5] WLB[4] WLB[3] WLB[2]
+WLB[1] WLB[0] RAM128_BITCELL32X2ABR
XI2 BLA[1] BLA[0] BLB[1] BLB[0] BLXA[1] BLXA[0] BLXB[1] BLXB[0] VSS VSS
+VSS VSS RDWLB[3] RDWLB[2] RDWLB[1] RDWLB[0] VDD VSS WLA[31] WLA[30]
+WLA[29] WLA[28] WLA[27] WLA[26] WLA[25] WLA[24] WLA[23] WLA[22] WLA[21] WLA[20]
+WLA[19] WLA[18] WLA[17] WLA[16] WLA[15] WLA[14] WLA[13] WLA[12] WLA[11] WLA[10]
+WLA[9] WLA[8] WLA[7] WLA[6] WLA[5] WLA[4] WLA[3] WLA[2] WLA[1] WLA[0]
+WLB[31] WLB[30] WLB[29] WLB[28] WLB[27] WLB[26] WLB[25] WLB[24] WLB[23] WLB[22]
+WLB[21] WLB[20] WLB[19] WLB[18] WLB[17] WLB[16] WLB[15] WLB[14] WLB[13] WLB[12]
+WLB[11] WLB[10] WLB[9] WLB[8] WLB[7] WLB[6] WLB[5] WLB[4] WLB[3] WLB[2]
+WLB[1] WLB[0] RAM128_BITCELL32X2ABR
.ENDS

************************************************************************
* Library Name:  SMIC_MEMORY
* Cell Name:    RAM128_BITCELL32X2ABR_MID
* View Name:    schematic
************************************************************************

.SUBCKT RAM128_BITCELL32X2ABR_MID BLA[1] BLA[0] BLB[1] BLB[0] BLXA[1] BLXA[0] BLXB[1] BLXB[0] RDWLA[3] RDWLA[2]
+RDWLA[1] RDWLA[0] RDWLA_MID[3] RDWLA_MID[2] RDWLA_MID[1] RDWLA_MID[0] RDWLB[3] RDWLB[2] RDWLB[1] RDWLB[0]
+RDWLB_MID[3] RDWLB_MID[2] RDWLB_MID[1] RDWLB_MID[0] VDD VSS WLA[31] WLA[30] WLA[29] WLA[28]
+WLA[27] WLA[26] WLA[25] WLA[24] WLA[23] WLA[22] WLA[21] WLA[20] WLA[19] WLA[18]
+WLA[17] WLA[16] WLA[15] WLA[14] WLA[13] WLA[12] WLA[11] WLA[10] WLA[9] WLA[8]
+WLA[7] WLA[6] WLA[5] WLA[4] WLA[3] WLA[2] WLA[1] WLA[0] WLB[31] WLB[30]
+WLB[29] WLB[28] WLB[27] WLB[26] WLB[25] WLB[24] WLB[23] WLB[22] WLB[21] WLB[20]
+WLB[19] WLB[18] WLB[17] WLB[16] WLB[15] WLB[14] WLB[13] WLB[12] WLB[11] WLB[10]
+WLB[9] WLB[8] WLB[7] WLB[6] WLB[5] WLB[4] WLB[3] WLB[2] WLB[1] WLB[0]
XI0 BLA[1] BLA[0] BLB[1] BLB[0] BLXA[1] BLXA[0] BLXB[1] BLXB[0] VDD VSS
+WLA[31] WLA[30] WLA[29] WLA[28] WLA[27] WLA[26] WLA[25] WLA[24] WLA[23] WLA[22]
+WLA[21] WLA[20] WLA[19] WLA[18] WLA[17] WLA[16] WLA[15] WLA[14] WLA[13] WLA[12]
+WLA[11] WLA[10] WLA[9] WLA[8] WLA[7] WLA[6] WLA[5] WLA[4] WLA[3] WLA[2]
+WLA[1] WLA[0] WLB[31] WLB[30] WLB[29] WLB[28] WLB[27] WLB[26] WLB[25] WLB[24]
+WLB[23] WLB[22] WLB[21] WLB[20] WLB[19] WLB[18] WLB[17] WLB[16] WLB[15] WLB[14]
+WLB[13] WLB[12] WLB[11] WLB[10] WLB[9] WLB[8] WLB[7] WLB[6] WLB[5] WLB[4]
+WLB[3] WLB[2] WLB[1] WLB[0] RAM128_BITCELL32X2
XI1 BLA[1] BLXA[1] VDD VSS RDWLA_MID[3] RDWLA_MID[2] RDWLA_MID[1] RDWLA_MID[0] RDWLB_MID[3] RDWLB_MID[2] RDWLB_MID[1] RDWLB_MID[0] RAM128_BITCELL2X2_STWL
XI2 BLA[0] BLXA[0] VDD VSS RDWLA[3] RDWLA[2] RDWLA[1] RDWLA[0] RDWLB[3] RDWLB[2] RDWLB[1] RDWLB[0] RAM128_BITCELL2X2_STWL
.ENDS

************************************************************************
* Library Name:  SMIC_MEMORY
* Cell Name:    RAM128_ARRAY_X32Y4D1_MD
* View Name:    schematic
************************************************************************

.SUBCKT RAM128_ARRAY_X32Y4D1_MD CLKB CLKXB DATAB DOUTA RDWLB[3] RDWLB[2] RDWLB[1] RDWLB[0] RDWLB_MID[3] RDWLB_MID[2]
+RDWLB_MID[1] RDWLB_MID[0] SACK1A SACK4A VDD VSS WLA[31] WLA[30] WLA[29] WLA[28]
+WLA[27] WLA[26] WLA[25] WLA[24] WLA[23] WLA[22] WLA[21] WLA[20] WLA[19] WLA[18]
+WLA[17] WLA[16] WLA[15] WLA[14] WLA[13] WLA[12] WLA[11] WLA[10] WLA[9] WLA[8]
+WLA[7] WLA[6] WLA[5] WLA[4] WLA[3] WLA[2] WLA[1] WLA[0] WLB[31] WLB[30]
+WLB[29] WLB[28] WLB[27] WLB[26] WLB[25] WLB[24] WLB[23] WLB[22] WLB[21] WLB[20]
+WLB[19] WLB[18] WLB[17] WLB[16] WLB[15] WLB[14] WLB[13] WLB[12] WLB[11] WLB[10]
+WLB[9] WLB[8] WLB[7] WLB[6] WLB[5] WLB[4] WLB[3] WLB[2] WLB[1] WLB[0]